<configuration>
	<input>
		<net-file value='.net.xml'/>
		<route-files value='.rou.xml'/>
		<gui-settings-file value='.settings.xml'/>
	</input>
	<time>
		<begin value='0'/>
		<end value='1800'/>
	</time>
</configuration>
