<?xml version="1.0" encoding="UTF-8"?>

<!-- generated on Thu Feb  2 16:43:52 2017 by SUMO netconvert Version 0.28.0
<?xml version="1.0" encoding="UTF-8"?>

<configuration xmlns:xsi="http://www.w3.org/2001/XMLSchema-instance" xsi:noNamespaceSchemaLocation="http://sumo.dlr.de/xsd/netconvertConfiguration.xsd">

    <input>
        <type-files value="/usr/local/share/sumo/data/typemap/osmNetconvert.typ.xml"/>
        <osm-files value="osm_bbox.osm.xml"/>
    </input>

    <output>
        <output-file value="/usr/local/share/sumo/tools/2017-02-02-16-43-51/osm.net.xml"/>
        <output.street-names value="true"/>
        <output.original-names value="true"/>
    </output>

    <projection>
        <proj.utm value="true"/>
    </projection>

    <tls_building>
        <tls.discard-simple value="true"/>
        <tls.join value="true"/>
        <tls.guess-signals value="true"/>
    </tls_building>

    <ramp_guessing>
        <ramps.guess value="true"/>
    </ramp_guessing>

    <processing>
        <geometry.remove value="true"/>
        <roundabouts.guess value="true"/>
        <junctions.join value="true"/>
        <junctions.corner-detail value="5"/>
    </processing>

    <report>
        <verbose value="true"/>
    </report>

</configuration>
-->

<net version="0.27" junctionCornerDetail="5" xmlns:xsi="http://www.w3.org/2001/XMLSchema-instance" xsi:noNamespaceSchemaLocation="http://sumo.dlr.de/xsd/net_file.xsd">

    <location netOffset="-325567.62,-4160973.65" convBoundary="0.00,0.00,2082.89,775.50" origBoundary="127.024572,37.579302,127.048076,37.586429" projParameter="+proj=utm +zone=52 +ellps=WGS84 +datum=WGS84 +units=m +no_defs"/>

    <type id="highway.bridleway" priority="1" numLanes="1" speed="2.78" allow="pedestrian" oneway="1" width="2.00"/>
    <type id="highway.bus_guideway" priority="1" numLanes="1" speed="8.33" allow="bus" oneway="1"/>
    <type id="highway.cycleway" priority="1" numLanes="1" speed="5.56" allow="bicycle" oneway="0" width="1.00"/>
    <type id="highway.footway" priority="1" numLanes="1" speed="2.78" allow="pedestrian" oneway="1" width="2.00"/>
    <type id="highway.ford" priority="1" numLanes="1" speed="2.78" allow="army" oneway="0"/>
    <type id="highway.living_street" priority="3" numLanes="1" speed="2.78" disallow="tram rail_urban rail rail_electric ship" oneway="0"/>
    <type id="highway.motorway" priority="13" numLanes="2" speed="44.44" allow="private emergency authority army vip passenger hov taxi bus coach delivery truck trailer motorcycle evehicle custom1 custom2" oneway="1"/>
    <type id="highway.motorway_link" priority="12" numLanes="1" speed="22.22" allow="private emergency authority army vip passenger hov taxi bus coach delivery truck trailer motorcycle evehicle custom1 custom2" oneway="1"/>
    <type id="highway.path" priority="1" numLanes="1" speed="2.78" allow="bicycle pedestrian" oneway="1" width="2.00"/>
    <type id="highway.pedestrian" priority="1" numLanes="1" speed="2.78" allow="pedestrian" oneway="1" width="2.00"/>
    <type id="highway.primary" priority="9" numLanes="2" speed="27.78" disallow="tram rail_urban rail rail_electric ship" oneway="0"/>
    <type id="highway.primary_link" priority="8" numLanes="1" speed="22.22" disallow="tram rail_urban rail rail_electric ship" oneway="0"/>
    <type id="highway.raceway" priority="14" numLanes="2" speed="83.33" allow="vip" oneway="0"/>
    <type id="highway.residential" priority="4" numLanes="1" speed="13.89" disallow="tram rail_urban rail rail_electric ship" oneway="0"/>
    <type id="highway.secondary" priority="7" numLanes="2" speed="27.78" disallow="tram rail_urban rail rail_electric ship" oneway="0"/>
    <type id="highway.secondary_link" priority="6" numLanes="1" speed="22.22" disallow="tram rail_urban rail rail_electric ship" oneway="0"/>
    <type id="highway.service" priority="2" numLanes="1" speed="5.56" allow="delivery bicycle pedestrian" oneway="0"/>
    <type id="highway.services" priority="1" numLanes="1" speed="8.33" disallow="tram rail_urban rail rail_electric ship" oneway="0"/>
    <type id="highway.stairs" priority="1" numLanes="1" speed="1.39" allow="pedestrian" oneway="1" width="2.00"/>
    <type id="highway.step" priority="1" numLanes="1" speed="1.39" allow="pedestrian" oneway="1" width="2.00"/>
    <type id="highway.steps" priority="1" numLanes="1" speed="1.39" allow="pedestrian" oneway="1" width="2.00"/>
    <type id="highway.tertiary" priority="6" numLanes="1" speed="22.22" disallow="tram rail_urban rail rail_electric ship" oneway="0"/>
    <type id="highway.tertiary_link" priority="5" numLanes="1" speed="22.22" disallow="tram rail_urban rail rail_electric ship" oneway="0"/>
    <type id="highway.track" priority="1" numLanes="1" speed="5.56" disallow="tram rail_urban rail rail_electric ship" oneway="0"/>
    <type id="highway.trunk" priority="11" numLanes="2" speed="27.78" disallow="tram rail_urban rail rail_electric bicycle pedestrian ship" oneway="0"/>
    <type id="highway.trunk_link" priority="10" numLanes="1" speed="22.22" disallow="tram rail_urban rail rail_electric bicycle pedestrian ship" oneway="0"/>
    <type id="highway.unclassified" priority="5" numLanes="1" speed="13.89" disallow="tram rail_urban rail rail_electric ship" oneway="0"/>
    <type id="highway.unsurfaced" priority="1" numLanes="1" speed="8.33" disallow="tram rail_urban rail rail_electric ship" oneway="0"/>
    <type id="railway.light_rail" priority="15" numLanes="1" speed="27.78" allow="rail_urban" oneway="1"/>
    <type id="railway.preserved" priority="15" numLanes="1" speed="27.78" allow="rail" oneway="1"/>
    <type id="railway.rail" priority="15" numLanes="1" speed="83.33" allow="rail rail_electric" oneway="1"/>
    <type id="railway.subway" priority="15" numLanes="1" speed="27.78" allow="rail_urban" oneway="1"/>
    <type id="railway.tram" priority="15" numLanes="1" speed="13.89" allow="tram" oneway="1"/>

    <edge id=":1906215104_0" function="internal">
        <lane id=":1906215104_0_0" index="0" disallow="tram rail_urban rail rail_electric ship" speed="27.78" length="4.82" shape="-1.04,1.28 -1.48,-0.14 -1.28,-1.04 -0.44,-1.42 1.04,-1.28"/>
    </edge>
    <edge id=":1943131877_0" function="internal">
        <lane id=":1943131877_0_0" index="0" disallow="tram rail_urban rail rail_electric ship" speed="18.06" length="5.44" shape="458.61,327.46 457.25,327.24 456.21,327.64 455.47,328.66 455.05,330.29"/>
    </edge>
    <edge id=":1943131877_1" function="internal">
        <lane id=":1943131877_1_0" index="0" disallow="tram rail_urban rail rail_electric ship" speed="8.33" length="16.45" shape="458.61,327.46 454.78,326.41 450.57,325.76 446.33,325.56 442.37,325.88"/>
    </edge>
    <edge id=":1943131877_2" function="internal">
        <lane id=":1943131877_2_0" index="0" disallow="tram rail_urban rail rail_electric ship" speed="18.06" length="12.73" shape="458.61,327.46 454.54,325.73 451.72,323.82 450.15,321.73 449.82,319.47"/>
    </edge>
    <edge id=":1943131877_3" function="internal">
        <lane id=":1943131877_3_0" index="0" disallow="tram rail_urban rail rail_electric ship" speed="8.33" length="4.88" shape="458.61,327.46 457.53,326.42 457.27,325.52 457.83,324.77 459.22,324.18"/>
    </edge>
    <edge id=":1943131877_4" function="internal">
        <lane id=":1943131877_4_0" index="0" disallow="tram rail_urban rail rail_electric ship" speed="18.06" length="5.27" shape="456.37,320.29 456.42,321.57 456.91,322.65 457.84,323.52 459.22,324.18"/>
    </edge>
    <edge id=":1943131877_5" function="internal">
        <lane id=":1943131877_5_0" index="0" disallow="tram rail_urban rail rail_electric ship" speed="27.78" length="10.07" shape="456.37,320.29 455.05,330.29"/>
        <lane id=":1943131877_5_1" index="1" disallow="tram rail_urban rail rail_electric ship" speed="27.78" length="10.07" shape="453.10,319.88 451.78,329.85"/>
    </edge>
    <edge id=":1943131877_7" function="internal">
        <lane id=":1943131877_7_0" index="0" disallow="tram rail_urban rail rail_electric ship" speed="18.06" length="3.78" shape="453.10,319.88 452.22,321.89 450.99,322.88"/>
    </edge>
    <edge id=":1943131877_8" function="internal">
        <lane id=":1943131877_8_0" index="0" disallow="tram rail_urban rail rail_electric ship" speed="27.78" length="2.41" shape="453.10,319.88 452.12,321.00 451.25,321.31"/>
    </edge>
    <edge id=":1943131877_18" function="internal">
        <lane id=":1943131877_18_0" index="0" speed="18.06" length="9.22" shape="450.99,322.88 450.14,323.56 446.86,324.89 442.37,325.88"/>
    </edge>
    <edge id=":1943131877_19" function="internal">
        <lane id=":1943131877_19_0" index="0" speed="27.78" length="2.41" shape="451.25,321.31 450.49,320.80 449.82,319.47"/>
    </edge>
    <edge id=":1943131877_9" function="internal">
        <lane id=":1943131877_9_0" index="0" disallow="tram rail_urban rail rail_electric ship" speed="18.06" length="5.89" shape="442.35,322.54 444.05,322.09 445.32,321.36 446.15,320.35 446.55,319.06"/>
    </edge>
    <edge id=":1943131877_10" function="internal">
        <lane id=":1943131877_10_0" index="0" disallow="tram rail_urban rail rail_electric ship" speed="8.33" length="17.08" shape="442.35,322.54 446.40,322.23 450.86,322.44 455.28,323.12 459.22,324.18"/>
    </edge>
    <edge id=":1943131877_11" function="internal">
        <lane id=":1943131877_11_0" index="0" disallow="tram rail_urban rail rail_electric ship" speed="18.06" length="14.72" shape="442.35,322.54 446.93,322.36 450.04,323.51 451.65,326.01 451.78,329.85"/>
    </edge>
    <edge id=":1943131877_12" function="internal">
        <lane id=":1943131877_12_0" index="0" disallow="tram rail_urban rail rail_electric ship" speed="8.33" length="4.88" shape="442.35,322.54 443.60,323.37 444.03,324.20 443.62,325.04 442.37,325.88"/>
    </edge>
    <edge id=":1943131877_13" function="internal">
        <lane id=":1943131877_13_0" index="0" disallow="tram rail_urban rail rail_electric ship" speed="18.06" length="5.22" shape="445.24,328.96 445.25,327.41 444.77,326.38 443.81,325.87 442.37,325.88"/>
    </edge>
    <edge id=":1943131877_14" function="internal">
        <lane id=":1943131877_14_0" index="0" disallow="tram rail_urban rail rail_electric ship" speed="27.78" length="10.01" shape="445.24,328.96 446.55,319.06"/>
        <lane id=":1943131877_14_1" index="1" disallow="tram rail_urban rail rail_electric ship" speed="27.78" length="10.01" shape="448.51,329.41 449.82,319.47"/>
    </edge>
    <edge id=":1943131877_16" function="internal">
        <lane id=":1943131877_16_0" index="0" disallow="tram rail_urban rail rail_electric ship" speed="18.06" length="5.41" shape="448.51,329.41 449.62,325.87 450.85,324.69"/>
    </edge>
    <edge id=":1943131877_17" function="internal">
        <lane id=":1943131877_17_0" index="0" disallow="tram rail_urban rail rail_electric ship" speed="27.78" length="2.41" shape="448.51,329.41 449.50,328.29 450.37,327.99"/>
    </edge>
    <edge id=":1943131877_20" function="internal">
        <lane id=":1943131877_20_0" index="0" speed="18.06" length="8.87" shape="450.85,324.69 451.77,323.82 454.97,323.25 459.22,324.18"/>
    </edge>
    <edge id=":1943131877_21" function="internal">
        <lane id=":1943131877_21_0" index="0" speed="27.78" length="2.41" shape="450.37,327.99 451.13,328.51 451.78,329.85"/>
    </edge>
    <edge id=":1943131928_0" function="internal">
        <lane id=":1943131928_0_0" index="0" disallow="tram rail_urban rail rail_electric ship" speed="18.06" length="4.96" shape="492.43,367.10 491.09,367.27 490.10,367.82 489.48,368.76 489.22,370.09"/>
    </edge>
    <edge id=":1943131928_1" function="internal">
        <lane id=":1943131928_1_0" index="0" disallow="tram rail_urban rail rail_electric ship" speed="18.06" length="14.99" shape="492.43,367.10 490.10,366.33 488.02,364.10 486.18,360.42 484.59,355.28"/>
    </edge>
    <edge id=":1943131928_2" function="internal">
        <lane id=":1943131928_2_0" index="0" disallow="tram rail_urban rail rail_electric ship" speed="27.78" length="4.82" shape="492.49,363.80 491.27,362.95 490.87,362.12 491.30,361.30 492.55,360.50"/>
    </edge>
    <edge id=":1943131928_3" function="internal">
        <lane id=":1943131928_3_0" index="0" disallow="tram rail_urban rail rail_electric ship" speed="18.06" length="5.97" shape="487.79,354.48 488.34,355.64 489.33,356.48 490.75,357.00 492.62,357.20"/>
    </edge>
    <edge id=":1943131928_4" function="internal">
        <lane id=":1943131928_4_0" index="0" disallow="tram rail_urban rail rail_electric ship" speed="8.33" length="15.72" shape="487.79,354.48 488.57,358.26 489.06,362.23 489.28,366.22 489.22,370.09"/>
    </edge>
    <edge id=":1943131928_5" function="internal">
        <lane id=":1943131928_5_0" index="0" disallow="tram rail_urban rail rail_electric ship" speed="8.33" length="4.82" shape="487.79,354.48 487.29,355.88 486.59,356.48 485.69,356.28 484.59,355.28"/>
    </edge>
    <edge id=":1943131928_6" function="internal">
        <lane id=":1943131928_6_0" index="0" disallow="tram rail_urban rail rail_electric ship" speed="8.33" length="14.74" shape="485.93,369.91 486.00,366.20 485.81,362.54 485.35,358.91 484.59,355.28"/>
    </edge>
    <edge id=":1943131928_7" function="internal">
        <lane id=":1943131928_7_0" index="0" disallow="tram rail_urban rail rail_electric ship" speed="18.06" length="12.86" shape="485.93,369.91 486.53,365.75 487.83,362.80 489.84,361.05 492.55,360.50"/>
    </edge>
    <edge id=":1943131928_8" function="internal">
        <lane id=":1943131928_8_0" index="0" disallow="tram rail_urban rail rail_electric ship" speed="8.33" length="4.82" shape="485.93,369.91 486.82,368.72 487.66,368.35 488.46,368.81 489.22,370.09"/>
    </edge>
    <edge id=":1943131943_0" function="internal">
        <lane id=":1943131943_0_0" index="0" disallow="tram rail_urban rail rail_electric ship" speed="8.33" length="5.67" shape="408.14,380.16 407.33,378.69 406.85,377.64 406.52,376.53 406.21,374.88"/>
    </edge>
    <edge id=":1943131943_1" function="internal">
        <lane id=":1943131943_1_0" index="0" disallow="tram rail_urban rail rail_electric ship" speed="8.33" length="2.41" shape="408.14,380.16 408.26,378.68 408.78,377.92"/>
    </edge>
    <edge id=":1943131943_6" function="internal">
        <lane id=":1943131943_6_0" index="0" speed="8.33" length="2.41" shape="408.78,377.92 409.70,377.88 411.03,378.56"/>
    </edge>
    <edge id=":1943131943_2" function="internal">
        <lane id=":1943131943_2_0" index="0" disallow="tram rail_urban rail rail_electric ship" speed="8.33" length="4.55" shape="409.47,374.32 409.72,375.64 409.98,376.53 410.37,377.38 411.03,378.56"/>
    </edge>
    <edge id=":1943131943_3" function="internal">
        <lane id=":1943131943_3_0" index="0" disallow="tram rail_urban rail rail_electric ship" speed="8.33" length="2.41" shape="409.47,374.32 408.86,375.68 408.12,376.23"/>
    </edge>
    <edge id=":1943131943_7" function="internal">
        <lane id=":1943131943_7_0" index="0" speed="8.33" length="2.41" shape="408.12,376.23 407.24,375.96 406.21,374.88"/>
    </edge>
    <edge id=":1943131943_4" function="internal">
        <lane id=":1943131943_4_0" index="0" disallow="tram rail_urban rail rail_electric ship" speed="11.11" length="4.85" shape="404.01,378.74 405.15,378.08 405.90,377.21 406.25,376.15 406.21,374.88"/>
    </edge>
    <edge id=":1943131943_5" function="internal">
        <lane id=":1943131943_5_0" index="0" disallow="tram rail_urban rail rail_electric ship" speed="11.11" length="7.54" shape="404.01,378.74 406.61,377.82 408.65,377.48 410.12,377.73 411.03,378.56"/>
    </edge>
    <edge id=":1943131962_0" function="internal">
        <lane id=":1943131962_0_0" index="0" disallow="tram rail_urban rail rail_electric ship" speed="18.06" length="5.74" shape="477.19,394.43 476.07,395.79 475.46,397.10 475.36,398.36 475.78,399.56"/>
    </edge>
    <edge id=":1943131962_1" function="internal">
        <lane id=":1943131962_1_0" index="0" disallow="tram rail_urban rail rail_electric ship" speed="8.33" length="4.82" shape="477.19,394.43 475.73,394.73 474.86,394.44 474.56,393.56 474.85,392.10"/>
    </edge>
    <edge id=":1943131962_2" function="internal">
        <lane id=":1943131962_2_0" index="0" disallow="tram rail_urban rail rail_electric ship" speed="18.06" length="5.15" shape="470.47,391.86 471.51,392.84 472.59,393.21 473.70,392.97 474.85,392.10"/>
    </edge>
    <edge id=":1943131962_3" function="internal">
        <lane id=":1943131962_3_0" index="0" disallow="tram rail_urban rail rail_electric ship" speed="27.78" length="9.11" shape="470.47,391.86 475.78,399.56"/>
        <lane id=":1943131962_3_1" index="1" disallow="tram rail_urban rail rail_electric ship" speed="27.78" length="9.11" shape="467.88,393.91 472.91,401.20"/>
    </edge>
    <edge id=":1943131965_0" function="internal">
        <lane id=":1943131965_0_0" index="0" disallow="tram rail_urban rail rail_electric ship" speed="18.06" length="6.52" shape="471.47,402.29 470.36,401.72 468.95,401.58 467.25,401.89 465.25,402.63"/>
    </edge>
    <edge id=":1943131965_1" function="internal">
        <lane id=":1943131965_1_0" index="0" disallow="tram rail_urban rail rail_electric ship" speed="27.78" length="9.25" shape="471.47,402.29 469.32,400.45 467.94,399.08 466.68,397.59 464.89,395.38"/>
        <lane id=":1943131965_1_1" index="1" disallow="tram rail_urban rail rail_electric ship" speed="27.78" length="9.25" shape="473.57,399.75 471.57,398.03 470.28,396.74 469.11,395.35 467.44,393.29"/>
    </edge>
    <edge id=":1943131965_3" function="internal">
        <lane id=":1943131965_3_0" index="0" disallow="tram rail_urban rail rail_electric ship" speed="18.06" length="5.35" shape="463.89,399.63 465.18,398.81 465.78,397.83 465.68,396.68 464.89,395.38"/>
    </edge>
    <edge id=":1943131965_4" function="internal">
        <lane id=":1943131965_4_0" index="0" disallow="tram rail_urban rail rail_electric ship" speed="8.33" length="4.82" shape="463.89,399.63 465.36,399.87 466.08,400.45 466.04,401.37 465.25,402.63"/>
    </edge>
    <edge id=":1943131968_0" function="internal">
        <lane id=":1943131968_0_0" index="0" disallow="tram rail_urban rail rail_electric ship" speed="8.33" length="6.79" shape="432.11,403.72 430.19,403.11 428.92,402.57 427.76,401.82 426.15,400.60"/>
    </edge>
    <edge id=":1943131968_1" function="internal">
        <lane id=":1943131968_1_0" index="0" disallow="tram rail_urban rail rail_electric ship" speed="8.33" length="4.82" shape="432.11,403.72 431.16,402.58 431.00,401.67 431.63,400.99 433.05,400.56"/>
    </edge>
    <edge id=":1943131968_2" function="internal">
        <lane id=":1943131968_2_0" index="0" disallow="tram rail_urban rail rail_electric ship" speed="8.33" length="5.59" shape="428.15,397.98 429.47,398.98 430.43,399.60 431.48,400.06 433.05,400.56"/>
    </edge>
    <edge id=":1943131968_3" function="internal">
        <lane id=":1943131968_3_0" index="0" disallow="tram rail_urban rail rail_electric ship" speed="8.33" length="4.82" shape="428.15,397.98 428.64,399.39 428.46,400.29 427.63,400.70 426.15,400.60"/>
    </edge>
    <edge id=":1943131977_0" function="internal">
        <lane id=":1943131977_0_0" index="0" disallow="tram rail_urban rail rail_electric ship" speed="8.33" length="5.83" shape="458.19,405.22 452.47,406.34"/>
    </edge>
    <edge id=":1943131977_1" function="internal">
        <lane id=":1943131977_1_0" index="0" disallow="tram rail_urban rail rail_electric ship" speed="8.33" length="4.82" shape="458.19,405.22 456.78,404.75 456.17,404.06 456.35,403.15 457.34,402.04"/>
    </edge>
    <edge id=":1943131977_2" function="internal">
        <lane id=":1943131977_2_0" index="0" disallow="tram rail_urban rail rail_electric ship" speed="8.33" length="5.30" shape="452.15,403.05 453.71,402.88 454.77,402.71 455.82,402.45 457.34,402.04"/>
    </edge>
    <edge id=":1943131977_3" function="internal">
        <lane id=":1943131977_3_0" index="0" disallow="tram rail_urban rail rail_electric ship" speed="8.33" length="4.82" shape="452.15,403.05 453.46,403.76 453.95,404.54 453.62,405.40 452.47,406.34"/>
    </edge>
    <edge id=":1943131979_0" function="internal">
        <lane id=":1943131979_0_0" index="0" disallow="tram rail_urban rail rail_electric ship" speed="11.11" length="4.94" shape="448.06,406.76 446.66,407.07 445.66,407.68 445.05,408.59 444.83,409.81"/>
    </edge>
    <edge id=":1943131979_1" function="internal">
        <lane id=":1943131979_1_0" index="0" disallow="tram rail_urban rail rail_electric ship" speed="8.33" length="6.55" shape="448.06,406.76 446.13,406.87 444.80,406.78 443.48,406.60 441.54,406.41"/>
    </edge>
    <edge id=":1943131979_2" function="internal">
        <lane id=":1943131979_2_0" index="0" disallow="tram rail_urban rail rail_electric ship" speed="8.33" length="2.44" shape="448.06,406.76 446.86,405.85 446.50,404.99"/>
    </edge>
    <edge id=":1943131979_9" function="internal">
        <lane id=":1943131979_9_0" index="0" speed="8.33" length="2.44" shape="446.50,404.99 446.97,404.18 448.28,403.43"/>
    </edge>
    <edge id=":1943131979_3" function="internal">
        <lane id=":1943131979_3_0" index="0" disallow="tram rail_urban rail rail_electric ship" speed="11.11" length="5.46" shape="444.97,400.14 445.16,401.70 445.78,402.77 446.81,403.34 448.28,403.43"/>
    </edge>
    <edge id=":1943131979_4" function="internal">
        <lane id=":1943131979_4_0" index="0" disallow="tram rail_urban rail rail_electric ship" speed="13.89" length="9.67" shape="444.97,400.14 444.83,409.81"/>
    </edge>
    <edge id=":1943131979_5" function="internal">
        <lane id=":1943131979_5_0" index="0" disallow="tram rail_urban rail rail_electric ship" speed="11.11" length="8.00" shape="444.97,400.14 444.73,402.96 444.08,404.95 443.01,406.10 441.54,406.41"/>
    </edge>
    <edge id=":1943131979_6" function="internal">
        <lane id=":1943131979_6_0" index="0" disallow="tram rail_urban rail rail_electric ship" speed="8.33" length="6.53" shape="441.75,403.12 448.28,403.43"/>
    </edge>
    <edge id=":1943131979_7" function="internal">
        <lane id=":1943131979_7_0" index="0" disallow="tram rail_urban rail rail_electric ship" speed="11.11" length="3.28" shape="441.75,403.12 443.14,403.61 444.12,404.89 444.17,405.08"/>
    </edge>
    <edge id=":1943131979_8" function="internal">
        <lane id=":1943131979_8_0" index="0" disallow="tram rail_urban rail rail_electric ship" speed="8.33" length="2.52" shape="441.75,403.12 442.94,404.02 443.29,404.87 443.24,404.97"/>
    </edge>
    <edge id=":1943131979_10" function="internal">
        <lane id=":1943131979_10_0" index="0" speed="11.11" length="4.80" shape="444.17,405.08 444.68,406.96 444.83,409.81"/>
    </edge>
    <edge id=":1943131979_11" function="internal">
        <lane id=":1943131979_11_0" index="0" speed="8.33" length="2.30" shape="443.24,404.97 442.83,405.67 441.54,406.41"/>
    </edge>
    <edge id=":1943131982_0" function="internal">
        <lane id=":1943131982_0_0" index="0" disallow="tram rail_urban rail rail_electric ship" speed="27.78" length="4.49" shape="473.56,408.60 473.79,404.22"/>
        <lane id=":1943131982_0_1" index="1" disallow="tram rail_urban rail rail_electric ship" speed="27.78" length="4.49" shape="476.23,406.66 476.36,402.06"/>
    </edge>
    <edge id=":1943131982_2" function="internal">
        <lane id=":1943131982_2_0" index="0" disallow="tram rail_urban rail rail_electric ship" speed="27.78" length="0.89" shape="476.23,406.66 476.19,405.77"/>
    </edge>
    <edge id=":1943131982_6" function="internal">
        <lane id=":1943131982_6_0" index="0" speed="27.78" length="3.93" shape="476.19,405.77 476.17,405.17 476.59,404.35 477.50,404.20 478.90,404.72"/>
    </edge>
    <edge id=":1943131982_3" function="internal">
        <lane id=":1943131982_3_0" index="0" disallow="tram rail_urban rail rail_electric ship" speed="27.78" length="12.18" shape="476.93,401.58 478.86,405.48 478.98,407.22 477.29,406.80 473.79,404.22"/>
    </edge>
    <edge id=":1943131982_4" function="internal">
        <lane id=":1943131982_4_0" index="0" disallow="tram rail_urban rail rail_electric ship" speed="27.78" length="4.72" shape="476.93,401.58 481.57,402.78"/>
        <lane id=":1943131982_4_1" index="1" disallow="tram rail_urban rail rail_electric ship" speed="27.78" length="4.72" shape="474.36,403.74 478.90,404.72"/>
    </edge>
    <edge id=":1943131992_0" function="internal">
        <lane id=":1943131992_0_0" index="0" disallow="tram rail_urban rail rail_electric ship" speed="13.89" length="4.82" shape="387.62,448.17 386.15,448.34 385.30,447.97 385.08,447.08 385.50,445.65"/>
    </edge>
    <edge id=":3828659145_0" function="internal">
        <lane id=":3828659145_0_0" index="0" disallow="tram rail_urban rail rail_electric ship" speed="27.78" length="4.82" shape="464.60,204.68 465.58,203.56 466.45,203.26 467.21,203.78 467.87,205.11"/>
    </edge>
    <edge id=":3964387735_0" function="internal">
        <lane id=":3964387735_0_0" index="0" disallow="tram rail_urban rail rail_electric ship" speed="13.89" length="4.82" shape="423.11,413.90 424.59,413.73 425.43,414.09 425.65,414.99 425.24,416.42"/>
    </edge>
    <edge id=":3964387738_0" function="internal">
        <lane id=":3964387738_0_0" index="0" disallow="tram rail_urban rail rail_electric ship" speed="8.33" length="6.04" shape="487.26,377.73 485.08,383.37"/>
    </edge>
    <edge id=":3964387738_1" function="internal">
        <lane id=":3964387738_1_0" index="0" disallow="tram rail_urban rail rail_electric ship" speed="8.33" length="2.41" shape="487.26,377.73 486.12,378.69 485.21,378.85"/>
    </edge>
    <edge id=":3964387738_4" function="internal">
        <lane id=":3964387738_4_0" index="0" speed="8.33" length="2.41" shape="485.21,378.85 484.54,378.22 484.10,376.80"/>
    </edge>
    <edge id=":3964387738_2" function="internal">
        <lane id=":3964387738_2_0" index="0" disallow="tram rail_urban rail rail_electric ship" speed="8.33" length="5.38" shape="482.17,381.81 482.90,380.39 483.32,379.38 483.65,378.33 484.10,376.80"/>
    </edge>
    <edge id=":3964387738_3" function="internal">
        <lane id=":3964387738_3_0" index="0" disallow="tram rail_urban rail rail_electric ship" speed="8.33" length="2.24" shape="482.17,381.81 483.48,381.11 484.23,381.13"/>
    </edge>
    <edge id=":3964387738_5" function="internal">
        <lane id=":3964387738_5_0" index="0" speed="8.33" length="2.58" shape="484.23,381.13 484.40,381.13 484.94,381.89 485.08,383.37"/>
    </edge>
    <edge id=":3964387739_0" function="internal">
        <lane id=":3964387739_0_0" index="0" disallow="tram rail_urban rail rail_electric ship" speed="27.78" length="7.22" shape="460.18,378.43 464.37,384.15"/>
        <lane id=":3964387739_0_1" index="1" disallow="tram rail_urban rail rail_electric ship" speed="27.78" length="7.22" shape="457.44,380.28 461.78,386.20"/>
    </edge>
    <edge id=":3964387744_0" function="internal">
        <lane id=":3964387744_0_0" index="0" disallow="tram rail_urban rail rail_electric ship" speed="8.33" length="5.00" shape="472.40,335.47 468.50,332.35"/>
    </edge>
    <edge id=":3964387744_1" function="internal">
        <lane id=":3964387744_1_0" index="0" disallow="tram rail_urban rail rail_electric ship" speed="8.33" length="2.41" shape="472.40,335.47 471.95,334.05 472.15,333.15"/>
    </edge>
    <edge id=":3964387744_4" function="internal">
        <lane id=":3964387744_4_0" index="0" speed="8.33" length="2.41" shape="472.15,333.15 472.98,332.77 474.47,332.90"/>
    </edge>
    <edge id=":3964387744_2" function="internal">
        <lane id=":3964387744_2_0" index="0" disallow="tram rail_urban rail rail_electric ship" speed="8.33" length="5.01" shape="470.56,329.77 474.47,332.90"/>
    </edge>
    <edge id=":3964387744_3" function="internal">
        <lane id=":3964387744_3_0" index="0" disallow="tram rail_urban rail rail_electric ship" speed="8.33" length="2.41" shape="470.56,329.77 471.01,331.19 470.81,332.09"/>
    </edge>
    <edge id=":3964387744_5" function="internal">
        <lane id=":3964387744_5_0" index="0" speed="8.33" length="2.41" shape="470.81,332.09 469.98,332.47 468.50,332.35"/>
    </edge>
    <edge id=":3964387748_0" function="internal">
        <lane id=":3964387748_0_0" index="0" disallow="tram rail_urban rail rail_electric ship" speed="8.33" length="5.02" shape="411.33,350.02 409.44,354.67"/>
    </edge>
    <edge id=":3964387748_1" function="internal">
        <lane id=":3964387748_1_0" index="0" disallow="tram rail_urban rail rail_electric ship" speed="8.33" length="2.41" shape="411.33,350.02 410.10,350.85 409.18,350.93"/>
    </edge>
    <edge id=":3964387748_4" function="internal">
        <lane id=":3964387748_4_0" index="0" speed="8.33" length="2.41" shape="409.18,350.93 408.57,350.23 408.27,348.78"/>
    </edge>
    <edge id=":3964387748_2" function="internal">
        <lane id=":3964387748_2_0" index="0" disallow="tram rail_urban rail rail_electric ship" speed="8.33" length="5.02" shape="406.38,353.42 408.27,348.78"/>
    </edge>
    <edge id=":3964387748_3" function="internal">
        <lane id=":3964387748_3_0" index="0" disallow="tram rail_urban rail rail_electric ship" speed="8.33" length="2.41" shape="406.38,353.42 407.61,352.59 408.53,352.52"/>
    </edge>
    <edge id=":3964387748_5" function="internal">
        <lane id=":3964387748_5_0" index="0" speed="8.33" length="2.41" shape="408.53,352.52 409.14,353.21 409.44,354.67"/>
    </edge>
    <edge id=":3964387749_0" function="internal">
        <lane id=":3964387749_0_0" index="0" disallow="tram rail_urban rail rail_electric ship" speed="27.78" length="5.88" shape="427.59,353.48 423.33,349.61"/>
        <lane id=":3964387749_0_1" index="1" disallow="tram rail_urban rail rail_electric ship" speed="27.78" length="5.88" shape="429.90,351.12 425.45,347.09"/>
    </edge>