<?xml version="1.0"?>
<!-- generated on 2017-01-29 17:20:32.194643 by $Id: randomTrips.py 21557 2016-09-28 10:43:52Z luecken $
  options: -n ./map/grid/grid.net.xml -e 180 -r ./map/grid/grid.rou.xml <doubleminus>trip-attributes=departLane="best" departSpeed="random" departPos="random" <doubleminus>intermediate 10 -p 7 -b 0.1 -o ./map/grid/grid.trips.xml
-->
<trips>
    <trip id="0" depart="0.10" from="2/1to3/1" to="3/4to3/3" via="1/1to1/2 4/3to4/4 3/3to3/4 0/3to0/4 0/2to0/3 0/2to1/2 2/1to3/1 2/1to1/1 2/1to2/0 4/4to4/3" departLane="best"/>
    <trip id="1" depart="7.10" from="2/3to1/3" to="1/2to1/3" via="3/2to3/3 0/4to1/4 2/2to2/1 1/0to0/0 3/3to3/4 4/2to3/2 1/2to0/2 1/3to1/4 2/1to3/1 2/4to2/3" departLane="best"/>
    <trip id="2" depart="14.10" from="0/3to1/3" to="3/2to3/1" via="3/0to3/1 3/3to4/3 4/2to4/1 3/1to3/2 3/0to4/0 3/2to3/3 0/3to0/4 3/0to2/0 2/2to2/1 1/0to1/1" departLane="best"/>
    <trip id="3" depart="21.10" from="2/2to1/2" to="3/3to3/4" via="3/1to4/1 1/4to1/3 4/2to4/3 2/2to2/1 2/3to2/4 1/0to2/0 3/0to3/1 2/1to1/1 3/0to2/0 2/0to1/0" departLane="best"/>
    <trip id="4" depart="28.10" from="2/3to1/3" to="2/0to2/1" via="1/2to0/2 3/2to2/2 3/3to2/3 2/1to2/0 3/0to4/0 0/3to0/4 0/1to1/1 4/1to3/1 3/4to4/4 0/4to0/3" departLane="best"/>
    <trip id="5" depart="35.10" from="1/0to1/1" to="0/1to0/2" via="3/0to4/0 0/0to1/0 1/2to2/2 1/1to2/1 3/0to2/0 0/3to0/2 4/4to4/3 2/3to1/3 1/2to1/1 0/4to0/3" departLane="best"/>
    <trip id="6" depart="42.10" from="1/0to1/1" to="2/4to3/4" via="3/3to2/3 3/2to4/2 3/1to3/0 3/4to2/4 1/4to1/3 3/4to4/4 3/2to3/1 3/2to3/3 4/1to4/2 0/1to1/1" departLane="best"/>
    <trip id="7" depart="49.10" from="3/1to2/1" to="1/3to2/3" via="4/4to4/3 2/4to3/4 3/1to3/0 2/0to1/0 4/0to4/1 3/3to2/3 1/0to1/1 4/2to3/2 0/3to1/3 2/1to3/1" departLane="best"/>
    <trip id="8" depart="56.10" from="4/3to4/4" to="3/3to4/3" via="2/2to3/2 2/1to2/0 1/2to1/1 4/2to4/3 1/4to0/4 0/4to0/3 0/3to0/4 2/2to3/2 1/3to1/2 2/2to2/3" departLane="best"/>
    <trip id="9" depart="63.10" from="0/1to0/0" to="0/0to1/0" via="2/4to3/4 0/1to1/1 3/2to3/3 3/3to3/4 0/0to1/0 2/1to3/1 0/3to1/3 0/2to0/3 0/2to0/3 4/1to3/1" departLane="best"/>
    <trip id="10" depart="70.10" from="4/2to3/2" to="3/4to2/4" via="3/0to4/0 3/4to4/4 3/3to4/3 2/4to2/3 1/2to2/2 1/2to0/2 4/0to4/1 0/0to0/1 1/0to0/0 0/3to1/3" departLane="best"/>
    <trip id="11" depart="77.10" from="3/1to4/1" to="1/2to1/1" via="2/1to2/2 0/1to1/1 0/0to0/1 3/4to2/4 2/0to2/1 4/3to3/3 2/2to3/2 0/3to1/3 1/0to2/0 1/3to0/3" departLane="best"/>
    <trip id="12" depart="84.10" from="4/2to3/2" to="2/3to3/3" via="2/1to3/1 0/3to0/4 2/1to2/2 2/2to2/3 2/0to2/1 4/3to4/2 0/1to1/1 0/0to0/1 4/1to4/2 3/2to3/3" departLane="best"/>
    <trip id="13" depart="91.10" from="2/1to2/0" to="3/2to3/3" via="0/4to1/4 0/2to0/1 1/1to2/1 2/3to3/3 4/3to3/3 0/1to1/1 0/4to0/3 3/1to2/1 3/0to4/0 4/2to3/2" departLane="best"/>
    <trip id="14" depart="98.10" from="2/3to2/4" to="3/4to2/4" via="1/4to1/3 4/3to3/3 2/1to2/2 4/3to3/3 0/2to0/1 0/3to0/2 4/4to3/4 3/1to3/0 0/2to0/1 1/2to1/1" departLane="best"/>
    <trip id="15" depart="105.10" from="1/4to1/3" to="2/1to1/1" via="0/1to0/2 1/2to1/1 3/3to3/2 1/2to1/1 3/1to3/0 3/2to3/1 4/3to4/2 3/1to3/0 4/4to4/3 3/4to4/4" departLane="best"/>
    <trip id="16" depart="112.10" from="1/3to0/3" to="0/1to1/1" via="1/4to1/3 2/1to1/1 2/3to3/3 4/0to3/0 0/2to0/3 0/4to0/3 3/4to2/4 3/3to4/3 3/4to4/4 4/1to4/2" departLane="best"/>
    <trip id="17" depart="119.10" from="3/2to4/2" to="2/2to3/2" via="2/0to2/1 3/2to4/2 1/4to1/3 1/2to0/2 1/1to2/1 1/2to0/2 3/3to4/3 1/4to0/4 0/1to1/1 2/2to2/3" departLane="best"/>
    <trip id="18" depart="126.10" from="3/2to4/2" to="3/3to3/4" via="0/0to0/1 0/1to0/0 1/1to0/1 0/1to0/2 4/3to4/4 2/1to2/2 1/4to0/4 3/2to4/2 4/1to4/0 0/0to0/1" departLane="best"/>
    <trip id="19" depart="133.10" from="1/1to1/2" to="3/3to3/2" via="2/2to3/2 1/2to2/2 1/2to1/1 4/0to3/0 2/1to2/0 4/4to4/3 3/3to4/3 4/1to3/1 2/2to2/1 3/3to3/2" departLane="best"/>
    <trip id="20" depart="140.10" from="3/3to3/4" to="1/0to0/0" via="4/3to4/4 4/0to4/1 3/2to2/2 2/1to3/1 3/2to3/3 4/1to4/2 2/4to2/3 1/3to0/3 0/4to0/3 3/0to2/0" departLane="best"/>
    <trip id="21" depart="147.10" from="2/0to2/1" to="2/2to1/2" via="2/2to3/2 2/0to2/1 4/1to4/2 3/0to3/1 4/2to3/2 1/2to1/1 2/4to3/4 0/0to1/0 2/2to2/1 0/1to0/0" departLane="best"/>
    <trip id="22" depart="154.10" from="1/2to1/3" to="3/3to4/3" via="1/0to1/1 4/2to4/1 0/0to1/0 3/2to4/2 2/0to1/0 0/3to0/4 1/3to1/4 0/0to1/0 3/3to4/3 2/4to3/4" departLane="best"/>
    <trip id="23" depart="161.10" from="4/0to3/0" to="4/4to4/3" via="0/2to0/1 0/2to0/1 1/0to2/0 1/4to1/3 1/4to0/4 0/0to1/0 0/4to1/4 4/2to4/3 1/0to0/0 1/2to1/3" departLane="best"/>
    <trip id="24" depart="168.10" from="0/3to0/4" to="2/3to2/4" via="1/1to0/1 1/1to2/1 1/3to1/2 0/2to0/3 0/0to1/0 2/3to2/4 3/4to2/4 1/1to0/1 4/3to4/2 3/4to2/4" departLane="best"/>
    <trip id="25" depart="175.10" from="1/4to1/3" to="4/4to4/3" via="0/3to1/3 2/3to2/2 3/2to3/1 1/2to0/2 2/2to1/2 2/3to3/3 1/2to0/2 1/3to1/4 1/3to1/2 1/1to1/2" departLane="best"/>
</trips>
