<?xml version="1.0"?>
<!-- generated on 2017-01-19 17:51:47.844793 by $Id: randomTrips.py 21557 2016-09-28 10:43:52Z luecken $
  options: -n ./map/grid/grid.net.xml -e 180 -r ./map/grid/grid.rou.xml <doubleminus>trip-attributes=departLane="best" departSpeed="random" departPos="random" <doubleminus>intermediate 10 -p 5 -b 0.1 -o ./map/grid/grid.trips.xml
-->
<trips>
    <trip id="0" depart="0.10" from="1/2to1/1" to="3/2to4/2" via="4/0to3/0 4/3to3/3 1/3to0/3 4/3to4/2 1/0to2/0 1/1to2/1 4/1to4/0 2/4to3/4 3/3to2/3 3/2to3/3" departLane="best"/>
    <trip id="1" depart="5.10" from="1/0to1/1" to="1/4to2/4" via="4/2to4/3 4/2to3/2 3/4to4/4 2/4to2/3 4/0to3/0 1/2to1/3 0/4to0/3 1/2to0/2 3/3to2/3 1/3to1/4" departLane="best"/>
    <trip id="2" depart="10.10" from="2/4to1/4" to="3/4to2/4" via="1/4to1/3 0/0to0/1 1/1to1/2 1/2to2/2 3/3to3/4 2/2to1/2 3/4to4/4 1/3to1/4 1/2to0/2 4/4to4/3" departLane="best"/>
    <trip id="3" depart="15.10" from="1/2to1/1" to="4/1to4/2" via="3/4to4/4 3/4to2/4 1/1to1/2 1/2to1/1 2/0to3/0 1/1to0/1 0/3to1/3 1/0to0/0 2/0to1/0 4/1to4/0" departLane="best"/>
    <trip id="4" depart="20.10" from="4/3to4/4" to="3/0to2/0" via="2/1to1/1 4/2to4/1 3/3to3/4 4/2to4/1 0/1to1/1 0/2to1/2 2/3to1/3 2/1to2/0 0/1to0/0 0/0to1/0" departLane="best"/>
    <trip id="5" depart="25.10" from="2/3to1/3" to="3/4to4/4" via="3/2to3/1 2/0to1/0 3/1to3/0 2/0to3/0 1/3to0/3 4/2to4/1 0/4to1/4 1/3to0/3 4/4to3/4 4/2to3/2" departLane="best"/>
    <trip id="6" depart="30.10" from="2/3to1/3" to="2/4to3/4" via="1/0to0/0 0/4to0/3 3/1to2/1 1/2to0/2 0/3to0/4 0/3to1/3 1/3to0/3 1/3to1/4 2/4to2/3 3/1to2/1" departLane="best"/>
    <trip id="7" depart="35.10" from="4/2to3/2" to="2/1to2/2" via="4/1to4/0 1/3to0/3 3/1to2/1 2/1to3/1 0/4to0/3 3/0to4/0 2/2to2/3 1/4to0/4 3/2to2/2 3/0to3/1" departLane="best"/>
    <trip id="8" depart="40.10" from="2/1to3/1" to="2/3to2/2" via="2/0to3/0 3/0to2/0 1/1to1/0 3/3to3/4 3/0to2/0 3/4to4/4 4/3to3/3 2/4to2/3 1/3to1/4 2/1to3/1" departLane="best"/>
    <trip id="9" depart="45.10" from="4/1to4/0" to="0/3to0/2" via="4/3to4/2 3/1to3/2 0/2to0/1 2/1to3/1 1/4to1/3 4/1to4/0 0/4to0/3 4/3to4/4 3/4to3/3 3/1to3/2" departLane="best"/>
    <trip id="10" depart="50.10" from="2/4to3/4" to="0/4to1/4" via="4/1to4/2 1/3to2/3 4/0to3/0 3/4to4/4 2/2to1/2 1/0to2/0 4/2to3/2 4/0to3/0 3/0to3/1 1/3to0/3" departLane="best"/>
    <trip id="11" depart="55.10" from="4/4to4/3" to="3/1to2/1" via="2/1to2/0 3/2to3/1 1/1to2/1 3/1to4/1 3/2to3/1 0/0to0/1 3/1to4/1 1/2to0/2 1/1to1/0 0/3to0/4" departLane="best"/>
    <trip id="12" depart="60.10" from="1/1to1/2" to="1/2to1/3" via="1/2to2/2 0/0to1/0 4/4to3/4 3/1to2/1 1/1to2/1 4/3to3/3 3/4to2/4 2/2to2/1 3/4to4/4 1/1to1/0" departLane="best"/>
    <trip id="13" depart="65.10" from="1/1to2/1" to="4/4to4/3" via="1/0to2/0 2/4to1/4 1/0to2/0 1/2to2/2 3/2to2/2 0/3to0/4 4/4to4/3 3/3to3/4 4/2to4/3 3/4to2/4" departLane="best"/>
    <trip id="14" depart="70.10" from="2/3to3/3" to="2/2to2/1" via="4/3to3/3 4/0to3/0 2/0to1/0 0/2to0/1 4/2to4/1 0/1to1/1 2/3to1/3 0/2to0/1 1/1to1/0 0/2to0/3" departLane="best"/>
    <trip id="15" depart="75.10" from="1/1to1/2" to="1/1to2/1" via="3/1to3/2 2/0to2/1 2/1to1/1 2/2to2/1 0/4to0/3 2/0to1/0 2/1to2/2 3/0to3/1 4/1to3/1 2/4to2/3" departLane="best"/>
    <trip id="16" depart="80.10" from="2/1to1/1" to="0/2to0/1" via="3/0to3/1 0/0to1/0 3/2to4/2 0/3to0/2 2/4to1/4 2/0to3/0 1/1to1/0 4/3to4/2 1/3to0/3 4/3to4/2" departLane="best"/>
    <trip id="17" depart="85.10" from="4/2to3/2" to="1/2to1/3" via="2/4to2/3 2/4to1/4 4/1to4/0 4/1to3/1 1/0to2/0 0/4to0/3 1/4to0/4 1/2to2/2 3/1to4/1 1/2to1/3" departLane="best"/>
    <trip id="18" depart="90.10" from="4/1to4/0" to="2/1to2/2" via="4/4to4/3 2/0to1/0 4/0to3/0 4/0to3/0 1/4to0/4 4/3to4/4 4/0to3/0 0/3to0/2 2/1to2/2 0/3to1/3" departLane="best"/>
    <trip id="19" depart="95.10" from="0/3to1/3" to="4/3to4/2" via="1/1to2/1 2/1to2/2 0/0to0/1 2/3to2/2 4/4to3/4 3/1to4/1 2/4to1/4 2/4to2/3 4/1to3/1 3/4to3/3" departLane="best"/>
    <trip id="20" depart="100.10" from="2/3to2/2" to="2/1to2/2" via="3/2to2/2 2/2to3/2 1/3to1/2 4/3to4/2 2/4to2/3 0/0to1/0 3/1to3/0 4/4to3/4 4/3to3/3 0/2to0/1" departLane="best"/>
    <trip id="21" depart="105.10" from="0/1to0/2" to="2/3to2/4" via="2/4to3/4 3/0to2/0 3/2to4/2 3/3to4/3 4/0to4/1 1/2to0/2 4/1to3/1 3/1to3/0 3/3to2/3 0/2to1/2" departLane="best"/>
    <trip id="22" depart="110.10" from="3/2to3/3" to="2/3to2/4" via="2/2to1/2 3/3to3/4 3/3to2/3 4/2to3/2 3/4to2/4 1/1to1/2 4/3to4/2 1/0to2/0 0/1to0/0 2/2to1/2" departLane="best"/>
    <trip id="23" depart="115.10" from="4/1to3/1" to="3/1to4/1" via="2/3to1/3 2/4to3/4 3/0to3/1 0/3to0/4 3/3to3/2 3/2to4/2 3/2to2/2 3/2to4/2 2/3to1/3 4/0to3/0" departLane="best"/>
    <trip id="24" depart="120.10" from="4/2to3/2" to="4/4to4/3" via="0/0to0/1 1/3to0/3 2/4to1/4 4/3to4/4 2/0to3/0 2/1to2/2 3/0to4/0 3/0to4/0 2/0to3/0 4/1to4/2" departLane="best"/>
    <trip id="25" depart="125.10" from="0/2to0/1" to="4/2to4/3" via="3/2to2/2 0/1to1/1 3/3to2/3 3/0to4/0 2/1to3/1 3/3to3/4 4/3to3/3 2/3to2/2 4/0to3/0 3/2to4/2" departLane="best"/>
    <trip id="26" depart="130.10" from="0/3to1/3" to="3/4to3/3" via="3/2to3/3 0/1to0/0 3/2to3/1 0/4to0/3 2/2to3/2 4/2to4/3 2/2to2/1 1/1to2/1 3/4to4/4 1/0to2/0" departLane="best"/>
    <trip id="27" depart="135.10" from="3/2to3/1" to="1/1to0/1" via="4/0to3/0 3/1to4/1 4/2to4/1 1/3to1/2 2/1to3/1 4/2to4/3 2/1to2/0 2/3to1/3 3/2to2/2 0/2to1/2" departLane="best"/>
    <trip id="28" depart="140.10" from="2/1to2/0" to="4/2to3/2" via="0/3to0/2 0/3to1/3 0/2to0/1 0/1to1/1 1/0to0/0 4/2to4/3 4/3to4/2 0/1to0/2 2/0to1/0 2/1to2/2" departLane="best"/>
    <trip id="29" depart="145.10" from="1/2to1/1" to="4/3to4/4" via="2/4to1/4 3/4to4/4 2/4to2/3 4/2to3/2 0/4to0/3 2/4to1/4 2/3to3/3 1/1to1/0 3/1to3/0 1/2to1/1" departLane="best"/>
    <trip id="30" depart="150.10" from="4/0to3/0" to="2/0to1/0" via="2/2to1/2 4/4to3/4 1/3to1/4 0/2to1/2 1/2to0/2 2/3to2/2 4/2to3/2 4/0to4/1 2/1to1/1 0/3to1/3" departLane="best"/>
    <trip id="31" depart="155.10" from="4/4to4/3" to="0/3to1/3" via="3/3to3/4 1/1to1/2 3/1to4/1 2/4to3/4 3/3to2/3 3/0to3/1 4/0to4/1 1/4to1/3 3/0to3/1 2/4to1/4" departLane="best"/>
    <trip id="32" depart="160.10" from="3/4to2/4" to="0/4to1/4" via="2/2to1/2 4/3to4/2 3/4to4/4 3/1to4/1 0/3to1/3 4/3to3/3 2/4to1/4 2/3to2/4 4/1to3/1 1/0to0/0" departLane="best"/>
    <trip id="33" depart="165.10" from="0/4to0/3" to="1/0to2/0" via="1/1to1/0 2/3to2/2 1/4to0/4 1/1to0/1 0/2to0/1 0/3to0/4 1/0to1/1 0/4to1/4 1/1to1/0 0/1to0/0" departLane="best"/>
    <trip id="34" depart="170.10" from="2/1to2/0" to="0/3to0/4" via="4/1to3/1 0/1to0/0 0/2to0/1 0/1to0/2 1/4to1/3 2/1to3/1 1/1to0/1 1/3to2/3 2/0to3/0 2/2to2/3" departLane="best"/>
    <trip id="35" depart="175.10" from="1/2to1/3" to="2/3to2/2" via="0/4to1/4 3/0to4/0 1/4to1/3 2/0to3/0 2/2to2/1 3/3to3/2 2/2to2/3 3/3to3/2 3/4to4/4 0/2to0/1" departLane="best"/>
</trips>
