<?xml version="1.0" encoding="UTF-8"?>

<!-- generated on Thu Jan 19 15:01:58 2017 by SUMO netgenerate Version 0.28.0
<?xml version="1.0" encoding="UTF-8"?>

<configuration xmlns:xsi="http://www.w3.org/2001/XMLSchema-instance" xsi:noNamespaceSchemaLocation="http://sumo.dlr.de/xsd/netgenerateConfiguration.xsd">

    <random_network>
        <rand value="true"/>
        <rand.iterations value="30"/>
    </random_network>

    <output>
        <output-file value="./map/random/random.net.xml"/>
    </output>

</configuration>
-->

<net version="0.27" xmlns:xsi="http://www.w3.org/2001/XMLSchema-instance" xsi:noNamespaceSchemaLocation="http://sumo.dlr.de/xsd/net_file.xsd">

    <location netOffset="354.42,565.34" convBoundary="0.00,0.00,1071.94,988.89" origBoundary="-354.42,-565.34,717.52,423.55" projParameter="!"/>

    <edge id=":1_0" function="internal">
        <lane id=":1_0_0" index="0" speed="13.90" length="5.38" shape="352.86,571.20 352.62,569.68 351.95,568.74 350.85,568.40 349.33,568.64"/>
    </edge>
    <edge id=":1_1" function="internal">
        <lane id=":1_1_0" index="0" speed="13.90" length="10.00" shape="352.86,571.20 352.82,568.24 352.71,566.20 352.41,564.19 351.75,561.30"/>
    </edge>
    <edge id=":1_2" function="internal">
        <lane id=":1_2_0" index="0" speed="13.90" length="5.74" shape="352.86,571.20 353.23,567.90 354.35,565.76"/>
    </edge>
    <edge id=":1_3" function="internal">
        <lane id=":1_3_0" index="0" speed="13.90" length="2.41" shape="352.86,571.20 353.67,569.95 354.49,569.53"/>
    </edge>
    <edge id=":1_16" function="internal">
        <lane id=":1_16_0" index="0" speed="13.90" length="5.59" shape="354.35,565.76 354.44,565.58 356.50,564.24 359.41,563.88"/>
    </edge>
    <edge id=":1_17" function="internal">
        <lane id=":1_17_0" index="0" speed="13.90" length="2.41" shape="354.49,569.53 355.32,569.93 356.16,571.15"/>
    </edge>
    <edge id=":1_4" function="internal">
        <lane id=":1_4_0" index="0" speed="13.90" length="5.81" shape="359.28,567.17 357.89,567.38 356.91,568.11 356.33,569.37 356.16,571.15"/>
    </edge>
    <edge id=":1_5" function="internal">
        <lane id=":1_5_0" index="0" speed="13.90" length="10.15" shape="359.28,567.17 356.29,567.11 354.22,567.28 352.20,567.76 349.33,568.64"/>
    </edge>
    <edge id=":1_6" function="internal">
        <lane id=":1_6_0" index="0" speed="13.90" length="10.35" shape="359.28,567.17 356.50,566.72 354.31,565.59 352.73,563.78 351.75,561.30"/>
    </edge>
    <edge id=":1_7" function="internal">
        <lane id=":1_7_0" index="0" speed="13.90" length="4.82" shape="359.28,567.17 358.08,566.30 357.70,565.46 358.14,564.65 359.41,563.88"/>
    </edge>
    <edge id=":1_8" function="internal">
        <lane id=":1_8_0" index="0" speed="13.90" length="6.03" shape="354.96,560.53 355.53,561.94 356.46,562.97 357.75,563.61 359.41,563.88"/>
    </edge>
    <edge id=":1_9" function="internal">
        <lane id=":1_9_0" index="0" speed="13.90" length="10.72" shape="354.96,560.53 355.63,563.54 355.97,565.79 356.10,568.07 356.16,571.15"/>
    </edge>
    <edge id=":1_10" function="internal">
        <lane id=":1_10_0" index="0" speed="13.90" length="5.16" shape="354.96,560.53 355.14,563.26 354.27,565.52"/>
    </edge>
    <edge id=":1_11" function="internal">
        <lane id=":1_11_0" index="0" speed="13.90" length="2.41" shape="354.96,560.53 354.45,561.93 353.74,562.52"/>
    </edge>
    <edge id=":1_18" function="internal">
        <lane id=":1_18_0" index="0" speed="13.90" length="5.92" shape="354.27,565.52 352.33,567.32 349.33,568.64"/>
    </edge>
    <edge id=":1_19" function="internal">
        <lane id=":1_19_0" index="0" speed="13.90" length="2.41" shape="353.74,562.52 352.85,562.31 351.75,561.30"/>
    </edge>
    <edge id=":1_12" function="internal">
        <lane id=":1_12_0" index="0" speed="13.90" length="6.02" shape="348.35,565.49 350.10,564.75 351.25,563.81 351.80,562.66 351.75,561.30"/>
    </edge>
    <edge id=":1_13" function="internal">
        <lane id=":1_13_0" index="0" speed="13.90" length="11.25" shape="348.35,565.49 351.39,564.59 353.80,564.06 356.24,563.84 359.41,563.88"/>
    </edge>
    <edge id=":1_14" function="internal">
        <lane id=":1_14_0" index="0" speed="13.90" length="11.91" shape="348.35,565.49 351.72,564.95 354.15,565.72 355.63,567.78 356.16,571.15"/>
    </edge>
    <edge id=":1_15" function="internal">
        <lane id=":1_15_0" index="0" speed="13.90" length="4.82" shape="348.35,565.49 349.78,565.91 350.42,566.58 350.27,567.49 349.33,568.64"/>
    </edge>
    <edge id=":10_0" function="internal">
        <lane id=":10_0_0" index="0" speed="13.90" length="4.82" shape="192.62,617.27 191.19,616.85 190.55,616.19 190.70,615.28 191.64,614.12"/>
    </edge>
    <edge id=":115_0" function="internal">
        <lane id=":115_0_0" index="0" speed="13.90" length="5.82" shape="525.41,255.94 524.43,254.50 523.39,253.97 522.30,254.36 521.14,255.67"/>
    </edge>
    <edge id=":115_1" function="internal">
        <lane id=":115_1_0" index="0" speed="13.90" length="11.00" shape="525.41,255.94 523.84,253.40 521.96,251.41 519.77,249.98 517.26,249.11"/>
    </edge>
    <edge id=":115_2" function="internal">
        <lane id=":115_2_0" index="0" speed="13.90" length="2.29" shape="525.41,255.94 525.59,254.47 526.08,253.82"/>
    </edge>
    <edge id=":115_9" function="internal">
        <lane id=":115_9_0" index="0" speed="13.90" length="2.53" shape="526.08,253.82 526.15,253.73 527.07,253.73 528.36,254.47"/>
    </edge>
    <edge id=":115_3" function="internal">
        <lane id=":115_3_0" index="0" speed="13.90" length="13.94" shape="517.97,245.89 521.20,246.99 524.00,248.79 526.39,251.29 528.36,254.47"/>
    </edge>
    <edge id=":115_4" function="internal">
        <lane id=":115_4_0" index="0" speed="13.90" length="7.15" shape="517.97,245.89 521.34,247.20 522.99,249.27 522.97,250.16"/>
    </edge>
    <edge id=":115_5" function="internal">
        <lane id=":115_5_0" index="0" speed="13.90" length="2.65" shape="517.97,245.89 519.00,246.96 519.22,247.85 519.07,248.04"/>
    </edge>
    <edge id=":115_10" function="internal">
        <lane id=":115_10_0" index="0" speed="13.90" length="5.94" shape="522.97,250.16 522.93,252.09 521.14,255.67"/>
    </edge>
    <edge id=":115_11" function="internal">
        <lane id=":115_11_0" index="0" speed="13.90" length="2.17" shape="519.07,248.04 518.64,248.57 517.26,249.11"/>
    </edge>
    <edge id=":115_6" function="internal">
        <lane id=":115_6_0" index="0" speed="13.90" length="6.16" shape="518.40,253.84 519.30,252.08 519.42,250.71 518.73,249.72 517.26,249.11"/>
    </edge>
    <edge id=":115_7" function="internal">
        <lane id=":115_7_0" index="0" speed="13.90" length="13.59" shape="518.40,253.84 521.09,250.78 523.65,249.86 526.07,251.09 528.36,254.47"/>
    </edge>
    <edge id=":115_8" function="internal">
        <lane id=":115_8_0" index="0" speed="13.90" length="4.82" shape="518.40,253.84 519.77,253.27 520.69,253.38 521.14,254.19 521.14,255.67"/>
    </edge>
    <edge id=":118_0" function="internal">
        <lane id=":118_0_0" index="0" speed="13.90" length="12.40" shape="128.12,243.31 124.92,244.20 122.09,244.52 119.22,244.48 115.87,244.25"/>
    </edge>
    <edge id=":118_1" function="internal">
        <lane id=":118_1_0" index="0" speed="13.90" length="5.12" shape="128.12,243.31 125.56,243.61 123.17,242.76"/>
    </edge>
    <edge id=":118_2" function="internal">
        <lane id=":118_2_0" index="0" speed="13.90" length="2.56" shape="128.12,243.31 126.68,242.94 126.02,242.29 126.04,242.14"/>
    </edge>
    <edge id=":118_9" function="internal">
        <lane id=":118_9_0" index="0" speed="13.90" length="7.34" shape="123.17,242.76 123.07,242.72 120.65,240.64 118.30,237.35"/>
    </edge>
    <edge id=":118_10" function="internal">
        <lane id=":118_10_0" index="0" speed="13.90" length="2.26" shape="126.04,242.14 126.14,241.38 127.03,240.19"/>
    </edge>
    <edge id=":118_3" function="internal">
        <lane id=":118_3_0" index="0" speed="13.90" length="7.95" shape="121.13,235.66 122.72,237.99 124.23,239.52 125.67,240.26 127.03,240.19"/>
    </edge>
    <edge id=":118_4" function="internal">
        <lane id=":118_4_0" index="0" speed="13.90" length="14.37" shape="121.13,235.66 122.88,239.69 122.59,242.47 120.25,243.98 115.87,244.25"/>
    </edge>
    <edge id=":118_5" function="internal">
        <lane id=":118_5_0" index="0" speed="13.90" length="4.82" shape="121.13,235.66 121.06,237.15 120.56,237.92 119.64,237.99 118.30,237.35"/>
    </edge>
    <edge id=":118_6" function="internal">
        <lane id=":118_6_0" index="0" speed="13.90" length="6.03" shape="116.09,240.96 117.93,240.85 118.91,240.21 119.03,239.04 118.30,237.35"/>
    </edge>
    <edge id=":118_7" function="internal">
        <lane id=":118_7_0" index="0" speed="13.90" length="11.09" shape="116.09,240.96 119.24,241.21 121.66,241.32 124.03,241.05 127.03,240.19"/>
    </edge>
    <edge id=":118_8" function="internal">
        <lane id=":118_8_0" index="0" speed="13.90" length="2.41" shape="116.09,240.96 117.27,241.86 117.62,242.71"/>
    </edge>
    <edge id=":118_11" function="internal">
        <lane id=":118_11_0" index="0" speed="13.90" length="2.41" shape="117.62,242.71 117.16,243.51 115.87,244.25"/>
    </edge>
    <edge id=":12_0" function="internal">
        <lane id=":12_0_0" index="0" speed="13.90" length="14.55" shape="432.46,396.33 430.03,393.59 427.23,391.35 424.12,389.52 420.75,388.01"/>
    </edge>
    <edge id=":12_1" function="internal">
        <lane id=":12_1_0" index="0" speed="13.90" length="16.21" shape="432.46,396.33 430.28,393.06 428.24,389.43 426.43,385.67 424.91,382.03"/>
    </edge>
    <edge id=":12_2" function="internal">
        <lane id=":12_2_0" index="0" speed="13.90" length="7.19" shape="432.46,396.33 430.70,392.96 430.25,389.60"/>
    </edge>
    <edge id=":12_3" function="internal">
        <lane id=":12_3_0" index="0" speed="13.90" length="6.03" shape="432.46,396.33 430.65,392.81 430.90,390.76"/>
    </edge>
    <edge id=":12_4" function="internal">
        <lane id=":12_4_0" index="0" speed="13.90" length="2.55" shape="432.46,396.33 432.39,394.84 432.80,394.02 432.94,393.99"/>
    </edge>
    <edge id=":12_25" function="internal">
        <lane id=":12_25_0" index="0" speed="13.90" length="8.69" shape="430.25,389.60 430.22,389.38 431.05,385.56 433.17,381.53"/>
    </edge>
    <edge id=":12_26" function="internal">
        <lane id=":12_26_0" index="0" speed="13.90" length="8.69" shape="430.90,390.76 430.99,390.07 433.48,388.08 438.13,386.86"/>
    </edge>
    <edge id=":12_27" function="internal">
        <lane id=":12_27_0" index="0" speed="13.90" length="2.27" shape="432.94,393.99 433.71,393.86 435.11,394.36"/>
    </edge>
    <edge id=":12_5" function="internal">
        <lane id=":12_5_0" index="0" speed="13.90" length="7.14" shape="438.61,390.13 436.14,390.72 434.74,391.62 434.40,392.84 435.11,394.36"/>
    </edge>
    <edge id=":12_6" function="internal">
        <lane id=":12_6_0" index="0" speed="13.90" length="18.12" shape="438.61,390.13 434.38,390.36 429.57,390.03 424.80,389.22 420.75,388.01"/>
    </edge>
    <edge id=":12_7" function="internal">
        <lane id=":12_7_0" index="0" speed="13.90" length="17.39" shape="438.61,390.13 433.99,390.17 430.17,388.84 427.14,386.13 424.91,382.03"/>
    </edge>
    <edge id=":12_8" function="internal">
        <lane id=":12_8_0" index="0" speed="13.90" length="15.81" shape="438.61,390.13 433.62,390.27 431.05,388.89 430.90,385.97 433.17,381.53"/>
    </edge>
    <edge id=":12_9" function="internal">
        <lane id=":12_9_0" index="0" speed="13.90" length="4.82" shape="438.61,390.13 437.26,389.49 436.74,388.73 437.02,387.86 438.13,386.86"/>
    </edge>
    <edge id=":12_10" function="internal">
        <lane id=":12_10_0" index="0" speed="13.90" length="6.44" shape="435.91,383.36 434.99,385.17 435.05,386.36 436.10,386.92 438.13,386.86"/>
    </edge>
    <edge id=":12_11" function="internal">
        <lane id=":12_11_0" index="0" speed="13.90" length="11.80" shape="435.91,383.36 434.27,386.43 433.59,389.29 433.87,391.93 435.11,394.36"/>
    </edge>
    <edge id=":12_12" function="internal">
        <lane id=":12_12_0" index="0" speed="13.90" length="17.37" shape="435.91,383.36 432.85,386.82 429.31,388.74 425.27,389.14 420.75,388.01"/>
    </edge>
    <edge id=":12_13" function="internal">
        <lane id=":12_13_0" index="0" speed="13.90" length="15.91" shape="435.91,383.36 432.73,387.02 429.83,388.02 427.23,386.36 424.91,382.03"/>
    </edge>
    <edge id=":12_14" function="internal">
        <lane id=":12_14_0" index="0" speed="13.90" length="4.82" shape="435.91,383.36 434.54,383.93 433.63,383.82 433.17,383.02 433.17,381.53"/>
    </edge>
    <edge id=":12_15" function="internal">
        <lane id=":12_15_0" index="0" speed="13.90" length="7.50" shape="427.99,380.85 429.09,382.90 430.31,383.70 431.68,383.24 433.17,381.53"/>
    </edge>
    <edge id=":12_16" function="internal">
        <lane id=":12_16_0" index="0" speed="13.90" length="12.88" shape="427.99,380.85 429.65,383.89 431.89,385.90 434.72,386.89 438.13,386.86"/>
    </edge>
    <edge id=":12_17" function="internal">
        <lane id=":12_17_0" index="0" speed="13.90" length="15.31" shape="427.99,380.85 429.44,384.37 431.11,387.85 432.99,391.21 435.11,394.36"/>
    </edge>
    <edge id=":12_18" function="internal">
        <lane id=":12_18_0" index="0" speed="13.90" length="6.42" shape="427.99,380.85 429.24,385.74 428.88,387.06"/>
    </edge>
    <edge id=":12_19" function="internal">
        <lane id=":12_19_0" index="0" speed="13.90" length="2.41" shape="427.99,380.85 427.66,382.30 427.04,382.98"/>
    </edge>
    <edge id=":12_28" function="internal">
        <lane id=":12_28_0" index="0" speed="13.90" length="9.54" shape="428.88,387.06 428.46,388.56 425.62,389.32 420.75,388.01"/>
    </edge>
    <edge id=":12_29" function="internal">
        <lane id=":12_29_0" index="0" speed="13.90" length="2.41" shape="427.04,382.98 426.12,382.89 424.91,382.03"/>
    </edge>
    <edge id=":12_20" function="internal">
        <lane id=":12_20_0" index="0" speed="13.90" length="6.48" shape="421.97,384.94 423.95,385.47 425.10,385.17 425.42,384.02 424.91,382.03"/>
    </edge>
    <edge id=":12_21" function="internal">
        <lane id=":12_21_0" index="0" speed="13.90" length="12.82" shape="421.97,384.94 425.31,385.78 428.29,385.49 430.91,384.07 433.17,381.53"/>
    </edge>
    <edge id=":12_22" function="internal">
        <lane id=":12_22_0" index="0" speed="13.90" length="16.42" shape="421.97,384.94 425.76,386.12 429.94,386.87 434.17,387.13 438.13,386.86"/>
    </edge>
    <edge id=":12_23" function="internal">
        <lane id=":12_23_0" index="0" speed="13.90" length="16.34" shape="421.97,384.94 425.56,386.63 429.16,388.84 432.45,391.45 435.11,394.36"/>
    </edge>
    <edge id=":12_24" function="internal">
        <lane id=":12_24_0" index="0" speed="13.90" length="4.82" shape="421.97,384.94 422.81,386.17 422.89,387.08 422.20,387.70 420.75,388.01"/>
    </edge>
    <edge id=":122_0" function="internal">
        <lane id=":122_0_0" index="0" speed="13.90" length="4.79" shape="800.36,355.87 799.07,355.86 798.03,356.23 797.22,356.99 796.65,358.15"/>
    </edge>
    <edge id=":122_1" function="internal">
        <lane id=":122_1_0" index="0" speed="13.90" length="9.03" shape="800.36,355.87 797.98,355.23 796.13,354.09 794.81,352.45 794.03,350.30"/>
    </edge>
    <edge id=":122_2" function="internal">
        <lane id=":122_2_0" index="0" speed="13.90" length="4.82" shape="800.36,355.87 799.26,354.87 798.97,354.00 799.50,353.24 800.84,352.61"/>
    </edge>
    <edge id=":122_3" function="internal">
        <lane id=":122_3_0" index="0" speed="13.90" length="5.00" shape="797.25,349.61 797.68,350.75 798.42,351.63 799.48,352.25 800.84,352.61"/>
    </edge>
    <edge id=":122_4" function="internal">
        <lane id=":122_4_0" index="0" speed="13.90" length="8.75" shape="797.25,349.61 797.73,352.14 797.80,353.92 797.44,355.69 796.65,358.15"/>
    </edge>
    <edge id=":122_5" function="internal">
        <lane id=":122_5_0" index="0" speed="13.90" length="2.51" shape="797.25,349.61 796.71,350.99 795.99,351.57 795.89,351.54"/>
    </edge>
    <edge id=":122_9" function="internal">
        <lane id=":122_9_0" index="0" speed="13.90" length="2.31" shape="795.89,351.54 795.09,351.34 794.03,350.30"/>
    </edge>
    <edge id=":122_6" function="internal">
        <lane id=":122_6_0" index="0" speed="13.90" length="6.96" shape="793.52,357.09 794.16,355.14 794.45,353.74 794.40,352.31 794.03,350.30"/>
    </edge>
    <edge id=":122_7" function="internal">
        <lane id=":122_7_0" index="0" speed="13.90" length="4.73" shape="793.52,357.09 794.65,354.82 796.24,353.32"/>
    </edge>
    <edge id=":122_8" function="internal">
        <lane id=":122_8_0" index="0" speed="13.90" length="2.41" shape="793.52,357.09 794.70,356.18 795.61,356.05"/>
    </edge>
    <edge id=":122_10" function="internal">
        <lane id=":122_10_0" index="0" speed="13.90" length="4.73" shape="796.24,353.32 798.31,352.58 800.84,352.61"/>
    </edge>
    <edge id=":122_11" function="internal">
        <lane id=":122_11_0" index="0" speed="13.90" length="2.41" shape="795.61,356.05 796.26,356.71 796.65,358.15"/>
    </edge>
    <edge id=":124_0" function="internal">
        <lane id=":124_0_0" index="0" speed="13.90" length="5.85" shape="876.77,640.75 875.76,639.90 874.53,639.60 873.10,639.84 871.47,640.62"/>
    </edge>
    <edge id=":124_1" function="internal">
        <lane id=":124_1_0" index="0" speed="13.90" length="9.72" shape="876.77,640.75 870.33,633.47"/>
    </edge>
    <edge id=":124_2" function="internal">
        <lane id=":124_2_0" index="0" speed="13.90" length="2.41" shape="876.77,640.75 876.63,639.27 877.01,638.43"/>
    </edge>
    <edge id=":124_9" function="internal">
        <lane id=":124_9_0" index="0" speed="13.90" length="2.41" shape="877.01,638.43 877.92,638.23 879.34,638.67"/>
    </edge>
    <edge id=":124_3" function="internal">
        <lane id=":124_3_0" index="0" speed="13.90" length="9.97" shape="872.73,631.20 879.34,638.67"/>
    </edge>
    <edge id=":124_4" function="internal">
        <lane id=":124_4_0" index="0" speed="13.90" length="5.73" shape="872.73,631.20 874.60,633.85 875.01,636.30"/>
    </edge>
    <edge id=":124_5" function="internal">
        <lane id=":124_5_0" index="0" speed="13.90" length="2.52" shape="872.73,631.20 872.98,632.67 872.66,633.53 872.56,633.57"/>
    </edge>
    <edge id=":124_10" function="internal">
        <lane id=":124_10_0" index="0" speed="13.90" length="5.73" shape="875.01,636.30 873.97,638.56 871.47,640.62"/>
    </edge>
    <edge id=":124_11" function="internal">
        <lane id=":124_11_0" index="0" speed="13.90" length="2.30" shape="872.56,633.57 871.78,633.80 870.33,633.47"/>
    </edge>
    <edge id=":124_6" function="internal">
        <lane id=":124_6_0" index="0" speed="13.90" length="5.27" shape="869.75,637.80 870.90,636.85 871.38,635.82 871.19,634.69 870.33,633.47"/>
    </edge>
    <edge id=":124_7" function="internal">
        <lane id=":124_7_0" index="0" speed="13.90" length="10.66" shape="869.75,637.80 872.58,636.50 875.12,636.21 877.37,636.94 879.34,638.67"/>
    </edge>
    <edge id=":124_8" function="internal">
        <lane id=":124_8_0" index="0" speed="13.90" length="4.82" shape="869.75,637.80 871.24,637.86 872.02,638.35 872.09,639.27 871.47,640.62"/>
    </edge>
    <edge id=":127_0" function="internal">
        <lane id=":127_0_0" index="0" speed="13.90" length="7.53" shape="705.07,866.90 702.96,867.64 701.49,868.20 700.22,869.04 698.73,870.65"/>
    </edge>
    <edge id=":127_1" function="internal">
        <lane id=":127_1_0" index="0" speed="13.90" length="5.27" shape="705.07,866.90 701.91,867.61 699.93,867.15"/>
    </edge>
    <edge id=":127_2" function="internal">
        <lane id=":127_2_0" index="0" speed="13.90" length="2.41" shape="705.07,866.90 703.62,866.57 702.94,865.94"/>
    </edge>
    <edge id=":127_9" function="internal">
        <lane id=":127_9_0" index="0" speed="13.90" length="6.20" shape="699.93,867.15 699.48,867.05 697.80,865.21 696.86,862.11"/>
    </edge>
    <edge id=":127_10" function="internal">
        <lane id=":127_10_0" index="0" speed="13.90" length="2.41" shape="702.94,865.94 703.04,865.02 703.90,863.81"/>
    </edge>
    <edge id=":127_3" function="internal">
        <lane id=":127_3_0" index="0" speed="13.90" length="5.28" shape="700.12,861.61 700.55,863.04 701.33,863.88 702.44,864.14 703.90,863.81"/>
    </edge>
    <edge id=":127_4" function="internal">
        <lane id=":127_4_0" index="0" speed="13.90" length="9.39" shape="700.12,861.61 700.39,864.50 700.24,866.97 699.69,869.02 698.73,870.65"/>
    </edge>
    <edge id=":127_5" function="internal">
        <lane id=":127_5_0" index="0" speed="13.90" length="4.82" shape="700.12,861.61 699.49,862.96 698.74,863.49 697.86,863.21 696.86,862.11"/>
    </edge>
    <edge id=":127_6" function="internal">
        <lane id=":127_6_0" index="0" speed="13.90" length="6.64" shape="696.18,868.56 696.75,867.52 697.05,866.09 697.09,864.29 696.86,862.11"/>
    </edge>
    <edge id=":127_7" function="internal">
        <lane id=":127_7_0" index="0" speed="13.90" length="9.26" shape="696.18,868.56 698.00,866.57 699.53,865.48 701.31,864.74 703.90,863.81"/>
    </edge>
    <edge id=":127_8" function="internal">
        <lane id=":127_8_0" index="0" speed="13.90" length="2.57" shape="696.18,868.56 697.60,868.12 698.50,868.33 698.57,868.48"/>
    </edge>
    <edge id=":127_11" function="internal">
        <lane id=":127_11_0" index="0" speed="13.90" length="2.25" shape="698.57,868.48 698.88,869.17 698.73,870.65"/>
    </edge>
    <edge id=":137_0" function="internal">
        <lane id=":137_0_0" index="0" speed="13.90" length="15.81" shape="510.36,875.35 506.41,877.51 502.64,878.38 499.05,877.96 495.63,876.26"/>
    </edge>
    <edge id=":137_1" function="internal">
        <lane id=":137_1_0" index="0" speed="13.90" length="8.91" shape="510.36,875.35 506.02,877.66 503.12,877.56 502.57,876.62"/>
    </edge>
    <edge id=":137_2" function="internal">
        <lane id=":137_2_0" index="0" speed="13.90" length="2.63" shape="510.36,875.35 508.87,875.38 508.06,874.94 508.03,874.72"/>
    </edge>
    <edge id=":137_9" function="internal">
        <lane id=":137_9_0" index="0" speed="13.90" length="6.72" shape="502.57,876.62 501.66,875.06 501.63,870.15"/>
    </edge>
    <edge id=":137_10" function="internal">
        <lane id=":137_10_0" index="0" speed="13.90" length="2.19" shape="508.03,874.72 507.93,874.03 508.48,872.64"/>
    </edge>
    <edge id=":137_3" function="internal">
        <lane id=":137_3_0" index="0" speed="13.90" length="6.39" shape="504.91,870.52 504.92,872.52 505.52,873.55 506.70,873.59 508.48,872.64"/>
    </edge>
    <edge id=":137_4" function="internal">
        <lane id=":137_4_0" index="0" speed="13.90" length="14.64" shape="504.91,870.52 503.85,875.14 501.95,877.65 499.21,878.02 495.63,876.26"/>
    </edge>
    <edge id=":137_5" function="internal">
        <lane id=":137_5_0" index="0" speed="13.90" length="4.82" shape="504.91,870.52 503.95,871.65 503.08,871.97 502.31,871.47 501.63,870.15"/>
    </edge>
    <edge id=":137_6" function="internal">
        <lane id=":137_6_0" index="0" speed="13.90" length="7.01" shape="497.54,873.56 499.08,874.26 500.28,873.92 501.13,872.55 501.63,870.15"/>
    </edge>
    <edge id=":137_7" function="internal">
        <lane id=":137_7_0" index="0" speed="13.90" length="11.75" shape="497.54,873.56 500.01,874.77 502.66,875.02 505.48,874.31 508.48,872.64"/>
    </edge>
    <edge id=":137_8" function="internal">
        <lane id=":137_8_0" index="0" speed="13.90" length="2.18" shape="497.54,873.56 498.07,874.95 497.97,875.63"/>
    </edge>
    <edge id=":137_11" function="internal">
        <lane id=":137_11_0" index="0" speed="13.90" length="2.64" shape="497.97,875.63 497.93,875.86 497.12,876.30 495.63,876.26"/>
    </edge>
    <edge id=":14_0" function="internal">
        <lane id=":14_0_0" index="0" speed="13.90" length="7.07" shape="241.11,209.63 239.96,207.50 238.74,206.12 237.45,205.49 236.08,205.61"/>
    </edge>
    <edge id=":14_1" function="internal">
        <lane id=":14_1_0" index="0" speed="13.90" length="13.45" shape="241.11,209.63 239.98,205.77 240.57,203.13 242.87,201.71 246.89,201.52"/>
    </edge>
    <edge id=":14_2" function="internal">
        <lane id=":14_2_0" index="0" speed="13.90" length="4.82" shape="241.11,209.63 241.36,208.16 241.95,207.45 242.87,207.49 244.12,208.29"/>
    </edge>
    <edge id=":14_3" function="internal">
        <lane id=":14_3_0" index="0" speed="13.90" length="5.78" shape="246.61,204.80 244.88,204.89 243.89,205.50 243.64,206.63 244.12,208.29"/>
    </edge>
    <edge id=":14_4" function="internal">
        <lane id=":14_4_0" index="0" speed="13.90" length="10.69" shape="246.61,204.80 243.53,204.52 241.25,204.43 239.02,204.73 236.08,205.61"/>
    </edge>
    <edge id=":14_5" function="internal">
        <lane id=":14_5_0" index="0" speed="13.90" length="2.41" shape="246.61,204.80 245.44,203.88 245.10,203.02"/>
    </edge>
    <edge id=":14_9" function="internal">
        <lane id=":14_9_0" index="0" speed="13.90" length="2.41" shape="245.10,203.02 245.58,202.23 246.89,201.52"/>
    </edge>
    <edge id=":14_6" function="internal">
        <lane id=":14_6_0" index="0" speed="13.90" length="12.06" shape="234.99,202.49 238.14,201.58 240.84,201.23 243.59,201.26 246.89,201.52"/>
    </edge>
    <edge id=":14_7" function="internal">
        <lane id=":14_7_0" index="0" speed="13.90" length="5.29" shape="234.99,202.49 237.69,202.11 240.12,202.95"/>
    </edge>
    <edge id=":14_8" function="internal">
        <lane id=":14_8_0" index="0" speed="13.90" length="2.54" shape="234.99,202.49 236.43,202.86 237.09,203.51 237.08,203.64"/>
    </edge>
    <edge id=":14_10" function="internal">
        <lane id=":14_10_0" index="0" speed="13.90" length="6.75" shape="240.12,202.95 242.26,205.01 244.12,208.29"/>
    </edge>
    <edge id=":14_11" function="internal">
        <lane id=":14_11_0" index="0" speed="13.90" length="2.28" shape="237.08,203.64 236.98,204.42 236.08,205.61"/>
    </edge>
    <edge id=":18_0" function="internal">
        <lane id=":18_0_0" index="0" speed="13.90" length="7.61" shape="748.28,504.31 747.16,503.63 745.58,503.45 743.54,503.79 741.03,504.63"/>
    </edge>
    <edge id=":18_1" function="internal">
        <lane id=":18_1_0" index="0" speed="13.90" length="10.49" shape="748.28,504.31 740.44,497.34"/>
    </edge>
    <edge id=":18_2" function="internal">
        <lane id=":18_2_0" index="0" speed="13.90" length="4.25" shape="748.28,504.31 747.01,502.39 746.54,500.50"/>
    </edge>
    <edge id=":18_3" function="internal">
        <lane id=":18_3_0" index="0" speed="13.90" length="2.30" shape="748.28,504.31 748.03,502.85 748.31,502.08"/>
    </edge>
    <edge id=":18_16" function="internal">
        <lane id=":18_16_0" index="0" speed="13.90" length="6.52" shape="746.54,500.50 746.43,500.05 746.54,497.28 747.34,494.10"/>
    </edge>
    <edge id=":18_17" function="internal">
        <lane id=":18_17_0" index="0" speed="13.90" length="2.51" shape="748.31,502.08 748.34,501.98 749.23,501.71 750.68,502.05"/>
    </edge>
    <edge id=":18_4" function="internal">
        <lane id=":18_4_0" index="0" speed="13.90" length="7.21" shape="750.46,495.15 749.85,497.43 749.69,499.33 749.96,500.87 750.68,502.05"/>
    </edge>
    <edge id=":18_5" function="internal">
        <lane id=":18_5_0" index="0" speed="13.90" length="13.80" shape="750.46,495.15 749.04,498.21 747.00,500.81 744.33,502.95 741.03,504.63"/>
    </edge>
    <edge id=":18_6" function="internal">
        <lane id=":18_6_0" index="0" speed="13.90" length="12.98" shape="750.46,495.15 748.81,498.33 746.59,499.75 743.80,499.42 740.44,497.34"/>
    </edge>
    <edge id=":18_7" function="internal">
        <lane id=":18_7_0" index="0" speed="13.90" length="4.82" shape="750.46,495.15 749.29,496.06 748.37,496.19 747.72,495.53 747.34,494.10"/>
    </edge>
    <edge id=":18_8" function="internal">
        <lane id=":18_8_0" index="0" speed="13.90" length="6.13" shape="742.52,494.78 744.17,495.83 745.52,496.07 746.58,495.49 747.34,494.10"/>
    </edge>
    <edge id=":18_9" function="internal">
        <lane id=":18_9_0" index="0" speed="13.90" length="10.93" shape="742.52,494.78 750.68,502.05"/>
    </edge>
    <edge id=":18_10" function="internal">
        <lane id=":18_10_0" index="0" speed="13.90" length="6.44" shape="742.52,494.78 745.28,497.71 745.88,500.04"/>
    </edge>
    <edge id=":18_11" function="internal">
        <lane id=":18_11_0" index="0" speed="13.90" length="2.54" shape="742.52,494.78 742.96,496.20 742.76,497.10 742.63,497.15"/>
    </edge>
    <edge id=":18_18" function="internal">
        <lane id=":18_18_0" index="0" speed="13.90" length="7.04" shape="745.88,500.04 745.96,500.33 744.54,502.64 741.03,504.63"/>
    </edge>
    <edge id=":18_19" function="internal">
        <lane id=":18_19_0" index="0" speed="13.90" length="2.28" shape="742.63,497.15 741.92,497.48 740.44,497.34"/>
    </edge>
    <edge id=":18_12" function="internal">
        <lane id=":18_12_0" index="0" speed="13.90" length="5.79" shape="739.80,501.57 741.31,500.72 741.91,499.73 741.62,498.60 740.44,497.34"/>
    </edge>
    <edge id=":18_13" function="internal">
        <lane id=":18_13_0" index="0" speed="13.90" length="10.95" shape="739.80,501.57 742.45,500.23 744.59,498.53 746.21,496.49 747.34,494.10"/>
    </edge>
    <edge id=":18_14" function="internal">
        <lane id=":18_14_0" index="0" speed="13.90" length="11.54" shape="739.80,501.57 743.31,500.46 746.29,500.17 748.75,500.70 750.68,502.05"/>
    </edge>
    <edge id=":18_15" function="internal">