<?xml version="1.0" encoding="UTF-8"?>

<!-- generated on Thu Jan 19 15:03:22 2017 by SUMO duarouter Version 0.28.0
<?xml version="1.0" encoding="UTF-8"?>

<configuration xmlns:xsi="http://www.w3.org/2001/XMLSchema-instance" xsi:noNamespaceSchemaLocation="http://sumo.dlr.de/xsd/duarouterConfiguration.xsd">

    <input>
        <net-file value="./map/random/random.net.xml"/>
        <trip-files value="./map/random/random.trips.xml"/>
    </input>

    <output>
        <output-file value="./map/random/random.rou.xml"/>
    </output>

    <processing>
        <ignore-errors value="true"/>
    </processing>

    <time>
        <begin value="0"/>
        <end value="180.0"/>
    </time>

    <report>
        <no-warnings value="true"/>
        <no-step-log value="true"/>
    </report>

</configuration>
-->

<routes xmlns:xsi="http://www.w3.org/2001/XMLSchema-instance" xsi:noNamespaceSchemaLocation="http://sumo.dlr.de/xsd/routes_file.xsd">
    <vehicle id="0" depart="0.00" departLane="best">
        <route edges="313 -326 -121 125 344 -344 -125 121 -64 116 -326 326 -313 -117 117 -38 -17 25 210 349 -349 -210 138 348 -348 -138 128 -128 138 -333 356 -348 -138 126 344 -344 -125 121 -64 116 -116 -17 19"/>
    </vehicle>
    <vehicle id="1" depart="5.00" departLane="best">
        <route edges="9 25 128 -128 -25 19 -19 25 128 -128 -25 17 64 -64 -13 -3 9 25 210 -381 -128 -25 17 38 -117 -15 13 -17 25 126 -126 -25 25"/>
    </vehicle>
    <vehicle id="2" depart="10.00" departLane="best">
        <route edges="123 -123 121 326 -313 -117 119 -119 119 -119 117 313 -326 -121 125 344 -344 -125 121 326 -116 -13 13 38 -38 64 -64 38 313 -326 -121 125 -125"/>
    </vehicle>
    <vehicle id="3" depart="15.00" departLane="best">
        <route edges="-17 -9 9 17 -13 13 -13 15 119 -119 -15 13 -17 25 138 -138 210 -210 -25 -9 9 25 138 -138 -25 17 64 326 -116 -13 -3 7 -7 3 13"/>
    </vehicle>
    <vehicle id="4" depart="20.00" departLane="best">
        <route edges="-128 -25 17 116 -313 -38 -17 17 64 -121 125 -125 -19 -9 3 13 -17 19 121 -64 116 -116 -17 25 138 348 -356 -7 9 19 123 336 -336 -123 125 344 -349 349 -344 -125 121 -64"/>
    </vehicle>
    <vehicle id="5" depart="25.00" departLane="best">
        <route edges="336 -336 -123 121 -64 116 -116 -13 -3 3 13 64 -121 121 326 -313 -38 -17 -9 9 19 121 -121 125 -126 -25 17 -13 -3 9 25 210 -381 -128 -25 17 38 -38"/>
    </vehicle>
    <vehicle id="6" depart="30.00" departLane="best">
        <route edges="-313 -38 38 -117 -15 -3 7 -7 9 25 128 381 349 -349 -210 138 348 -356 -7 9 19 -19 25 128 381 -210 -25 17 38 -117 -15 13 38 313 -326 -121 125 344 -344 -126"/>
    </vehicle>
    <vehicle id="7" depart="35.00" departLane="best">
        <route edges="333 -138 128 -128 -25 17 64 -121 -19 25 138 -138 -25 -9 9 19 121 326 -313 -117 119 -119 -15 -3 7 333 348 -356 -7 9 19 121 326 -116 -13 15 119 -119 -15 13 116"/>
    </vehicle>
    <vehicle id="8" depart="40.00" departLane="best">
        <route edges="-7 9 19 125 -126 138 348 -356 -7 9 19 -19 25 138 -138 -25 17 -13 13 -17 17 64 -121 121 -64 -17 25 128 -128 126 -125 -19 25 138 -333 -7 9 19 123"/>
    </vehicle>
    <vehicle id="9" depart="45.00" departLane="best">
        <route edges="25 126 -125 121 -64 116 -326 -121 125 344 -349 -210 138 -333 -7 9 17 38 313 -326 -121 123 336 -336 -123 -19 -9 7 356 -356 -7 3 13 38 -38 -17 25 138 -333 -7 3 15 117 -117"/>
    </vehicle>
    <vehicle id="10" depart="50.00" departLane="best">
        <route edges="-365 -349 -381 -128 -25 17 -13 15 -15 13 -17 25 128 -128 126 344 -344 -125 121 326 -313 -117 119 -119 117 313 -326 -121 125 -126 -25 17 38 313 -326 -121 -19 19 121 -64 38 -38 -17 25 138"/>
    </vehicle>
    <vehicle id="11" depart="55.00" departLane="best">
        <route edges="-326 -121 123 336 -336 -123 125 344 -349 349 -344 -125 121 -64 -13 13 64 -121 125 344 -344 344 -349 -210 -25 25 138 -333 -7 3 13 64 -64 38 -38 64 326 -116"/>
    </vehicle>
    <vehicle id="12" depart="60.00" departLane="best">
        <route edges="13 116 -116 -17 25 138 -138 -25 19 123 -123 -19 25 126 -125 121 -64 -13 13 64 -121 123 336 -336 -123 121 326 -116 64 -121 125 344 -349 349 -344 -125 125 -125 -19 -9 7 333 -138 128"/>
    </vehicle>
    <vehicle id="13" depart="65.00" departLane="best">
        <route edges="117 -117 -15 -3 7 333 -138 210 -210 -25 17 64 -64 -17 17 -17 25 210 349 -344 -125 121 -64 38 -117 -15 -3 3 13 -17 25 210 -381 -128 128 -128 -25 17 -13 15 -15 -3 7"/>
    </vehicle>
    <vehicle id="14" depart="70.00" departLane="best">
        <route edges="-19 -9 9 19 125 344 -349 349 -344 -125 125 -125 121 -121 125 344 -349 -210 138 348 -356 333 -138 210 349 -344 -125 121 -64 -17 25 138 -333 -7 9 19 123 336 361"/>
    </vehicle>
    <vehicle id="15" depart="75.00" departLane="best">
        <route edges="356 -356 -7 9 19 125 -126 138 348 -348 -333 333 -138 -25 17 38 -117 -15 13 -17 -9 7 -7 9 25 210 349 -349 -210 126 -125 121 326 -313 -38 -17 -9 9 19 123 336 -336"/>
    </vehicle>
    <vehicle id="16" depart="80.00" departLane="best">
        <route edges="-313 -38 -17 25 210 -210 210 349 -344 -125 121 -121 -19 25 138 -333 -7 3 15 117 -117 -15 13 64 -64 -13 -3 9 17 64 -64 -17 -9 3 13 116 -313 313 -326 -121 125 344 -349"/>
    </vehicle>
    <vehicle id="17" depart="85.00" departLane="best">
        <route edges="-7 3 15 117 313 -116 64 326 -313 -117 119 -119 117 313 -326 -121 -19 25 128 -128 138 -138 -25 17 -13 13 64 -121 123 -123 121 326 -313 325"/>
    </vehicle>
    <vehicle id="18" depart="90.00" departLane="best">
        <route edges="25 210 -210 -25 17 -13 15 -15 13 -17 25 126 -125 -19 25 138 -138 -25 17 -13 13 64 -121 -19 -9 7 333 -138 -25 17 -13 13 64 -64 -17 25 138 -333"/>
    </vehicle>
    <vehicle id="19" depart="95.00" departLane="best">
        <route edges="7 356 -356 -7 3 13 -17 17 -13 15 119 -119 117 313 -313 -117 -15 13 -17 25 210 349 -344 -125 121 -64 -17 17 38 -117 117 313 -326 -121 125 344 -349 -210 138 -333 -7 3 15 117"/>
    </vehicle>
    <vehicle id="20" depart="100.00" departLane="best">
        <route edges="-117 -15 -3 9 25 -25 17 -13 -3 7 333 -138 -25 17 -13 15 117 -38 64 -121 125 344 -349 -210 138 -138 -25 -9 9 17 64 -64 -17"/>
    </vehicle>
    <vehicle id="21" depart="105.00" departLane="best">
        <route edges="349 -344 -125 123 336 -336 -123 -19 25 126 -125 121 -64 -13 15 117 313 -116 -13 13 64 -64 -13 -3 7 333 -138 -25 17 116 -326 -64 -13 15 -15 -3 7 333"/>
    </vehicle>
    <vehicle id="22" depart="110.00" departLane="best">
        <route edges="-326 -64 -17 25 138 -333 -7 3 13 -17 25 210 -381 -128 -25 17 -13 13 38 -38 -17 25 138 -333 356 -348 -333 -7 9 17 -13 -3 3 13 64 -64 -13 -3"/>
    </vehicle>
    <vehicle id="23" depart="115.00" departLane="best">
        <route edges="-210 -25 -9 9 25 210 -381 -128 -25 -9 7 -7 9 19 121 -121 125 -125 121 326 -313 -38 -17 25 210 -381 -128 138 -138 -25 17 38 -38 64 -121 125 344"/>
    </vehicle>
    <vehicle id="24" depart="120.00" departLane="best">
        <route edges="-325 313 -326 -121 125 -126 -25 17 -13 15 119 -119 -15 -3 7 333 -333 -7 3 13 116 -326 -121 123 -123 -19 19 123 336 -336 -123 125 -125 -19 25 138 -138 -25 17 116 -116 -13 -3 7"/>
    </vehicle>
    <vehicle id="25" depart="125.00" departLane="best">
        <route edges="-3 3 13 64 -64 64 -121 121 -121 125 344 -349 349 -344 -125 121 326 -313 -117 -15 -3 9 17 116 -116 -17 25 210 -210 -25 -9 3 13 64 -121 125 344 -344 -125 121 326 -313 -117 -15"/>
    </vehicle>
    <vehicle id="26" depart="130.00" departLane="best">
        <route edges="344 -344 -125 123 -123 121 326 -116 64 -121 125 344 -349 349 -344 -125 -19 17 -13 15 117 -117 -15 -3 9 17 -13 15 -15 13 64 -64 64 -121 125 -125 121 -64 -13"/>
    </vehicle>
    <vehicle id="27" depart="135.00" departLane="best">
        <route edges="-333 333 -138 126 -126 -25 19 125 -125 121 -64 -13 -3 9 19 125 -125 121 326 -313 313 -326 -121 -19 17 38 -38 -13 15 117 313 -116 -17"/>
    </vehicle>
    <vehicle id="28" depart="140.00" departLane="best">
        <route edges="381 349 -344 -125 121 -121 121 -64 -17 25 210 -210 -25 17 38 313 -116 -17 25 210 -210 -25 17 64 -121 -19 -9 7 356 -356 -7 9 19 123 336 -336 -123 -19 -9 7 333 -333 -7 3 15 119 -119 -15"/>
    </vehicle>
    <vehicle id="29" depart="145.00" departLane="best">
        <route edges="-19 17 -13 13 64 -121 121 -64 -13 -3 9 19 -19 17 116 -116 -17 25 138 -333 -7 7 -7 3 15 117 -117 -15 13 -13 -3 7 -7"/>
    </vehicle>
    <vehicle id="30" depart="150.00" departLane="best">
        <route edges="116 -116 -17 25 210 -210 -25 17 -17 17 -13 15 -15 13 -17 25 128 -128 -25 17 -13 13 64 -121 -19 25 -25 -9 7 356 -348 -138 -25 19 123 -123 125 344 -349 -381 -128 138 348"/>
    </vehicle>
    <vehicle id="31" depart="155.00" departLane="best">
        <route edges="-333 333 -138 126 344 -344 -125 121 -121 121 -64 38 -117 -15 13 64 -121 121 -64 -17 25 138 -138 -25 25 -25 17 -13 15 119 -119 117 -38"/>
    </vehicle>
    <vehicle id="32" depart="160.00" departLane="best">
        <route edges="121 326 -313 -38 -17 25 -25 17 38 313 -326 -121 123 336 -336 -123 121 326 -313 -117 117 313 -326 -121 123 336 -336 -123 125 344 -349 -210 210 349 -344 -126 138 348 -348 -138 126 344 -344 -125 123 336 361"/>
    </vehicle>
    <vehicle id="33" depart="165.00" departLane="best">
        <route edges="-119 -15 -3 7 333 -333 356 -356 -7 9 19 -19 17 38 313 -326 -121 125 344 -344 -125 -19 19 123 -123 -19 25 -25 25 210 -210 -25 17 38 -117 -15"/>
    </vehicle>
    <vehicle id="34" depart="170.00" departLane="best">
        <route edges="-210 -25 17 116 -116 -13 -3 7 333 348 -356 -7 9 19 125 -125 -19 -9 9 25 210 -210 138 -333 -7 9 19 123 -123 121 -64 -13 15 -15 13 -17 25 210 349 -344 -125 123 336 361"/>
    </vehicle>
    <vehicle id="35" depart="175.00" departLane="best">
        <route edges="-325 -38 -17 25 128 -128 -25 19 125 344 -349 -210 -25 -9 9 17 38 -117 -15 13 -17 25 128 -128 -25 17 38 -117 -15 -3 3 15 119 -119 -15 13"/>
    </vehicle>
</routes>
