<?xml version="1.0" encoding="UTF-8"?>

<!-- generated on Thu Jan 19 15:01:33 2017 by SUMO duarouter Version 0.28.0
<?xml version="1.0" encoding="UTF-8"?>

<configuration xmlns:xsi="http://www.w3.org/2001/XMLSchema-instance" xsi:noNamespaceSchemaLocation="http://sumo.dlr.de/xsd/duarouterConfiguration.xsd">

    <input>
        <net-file value="./map/spider/spider.net.xml"/>
        <trip-files value="./map/spider/spider.trips.xml"/>
    </input>

    <output>
        <output-file value="./map/spider/spider.rou.xml"/>
    </output>

    <processing>
        <ignore-errors value="true"/>
    </processing>

    <time>
        <begin value="0"/>
        <end value="180.0"/>
    </time>

    <report>
        <no-warnings value="true"/>
        <no-step-log value="true"/>
    </report>

</configuration>
-->

<routes xmlns:xsi="http://www.w3.org/2001/XMLSchema-instance" xsi:noNamespaceSchemaLocation="http://sumo.dlr.de/xsd/routes_file.xsd">
    <vehicle id="0" depart="0.00" departLane="best">
        <route edges="2/1to3/1 3/1to2/1 2/1to2/2 2/2to3/2 3/2to3/1 3/1to1 1to1/1 1/1to1/2 1/2to1/3 1/3to1/2 1/2to5/2 5/2to1/2 1/2to1/1 1/1to1 1to3/1 3/1to3/2 3/2to3/3 3/3to3/2 3/2to3/1 3/1to2/1 2/1to1 1to1/1 1/1to1 1to2/1 2/1to2/2 2/2to3/2 3/2to4/2 4/2to4/3 4/3to4/2 4/2to4/1 4/1to3/1 3/1to4/1 4/1to4/2 4/2to3/2"/>
    </vehicle>
    <vehicle id="1" depart="5.00" departLane="best">
        <route edges="1/1to2/1 2/1to3/1 3/1to3/2 3/2to3/3 3/3to2/3 2/3to2/2 2/2to1/2 1/2to1/1 1/1to1 1to2/1 2/1to2/2 2/2to2/3 2/3to3/3 3/3to3/2 3/2to3/1 3/1to4/1 4/1to1 1to1/1 1/1to1/2 1/2to1/3 1/3to2/3 2/3to2/2 2/2to2/1 2/1to1/1 1/1to1 1to4/1 4/1to4/2 4/2to4/1 4/1to5/1 5/1to4/1 4/1to1 1to2/1 2/1to2/2 2/2to2/3 2/3to1/3 1/3to1/2 1/2to1/1 1/1to1 1to3/1 3/1to3/2"/>
    </vehicle>
    <vehicle id="2" depart="10.00" departLane="best">
        <route edges="5/1to4/1 4/1to1 1to1/1 1/1to2/1 2/1to1/1 1/1to1/2 1/2to1/1 1/1to1 1to4/1 4/1to3/1 3/1to4/1 4/1to4/2 4/2to4/1 4/1to1 1to1/1 1/1to1/2 1/2to1/3 1/3to2/3 2/3to2/2 2/2to2/1 2/1to1/1 1/1to5/1 5/1to1/1 1/1to1 1to2/1 2/1to2/2 2/2to2/3 2/3to2/2 2/2to2/1 2/1to1 1to4/1 4/1to4/2 4/2to4/3 4/3to5/3 5/3to5/2 5/2to5/1 5/1to1 1to2/1 2/1to2/2 2/2to2/3 2/3to1/3"/>
    </vehicle>
    <vehicle id="3" depart="15.00" departLane="best">
        <route edges="3/1to1 1to1/1 1/1to1/2 1/2to2/2 2/2to2/1 2/1to1 1to4/1 4/1to4/2 4/2to5/2 5/2to1/2 1/2to1/3 1/3to5/3 5/3to5/2 5/2to5/1 5/1to1 1to2/1 2/1to2/2 2/2to2/3 2/3to1/3 1/3to1/2 1/2to1/1 1/1to1 1to4/1 4/1to1 1to1/1 1/1to2/1 2/1to2/2 2/2to2/3 2/3to1/3 1/3to2/3 2/3to3/3 3/3to3/2 3/2to3/3 3/3to3/2 3/2to3/1 3/1to1 1to1/1 1/1to1/2 1/2to1/3 1/3to2/3"/>
    </vehicle>
    <vehicle id="4" depart="20.00" departLane="best">
        <route edges="1/3to2/3 2/3to2/2 2/2to2/1 2/1to1/1 1/1to5/1 5/1to5/2 5/2to5/1 5/1to5/2 5/2to5/3 5/3to5/2 5/2to5/1 5/1to1 1to2/1 2/1to1/1 1/1to1 1to3/1 3/1to2/1 2/1to1 1to1/1 1/1to1 1to4/1 4/1to3/1 3/1to3/2 3/2to3/3 3/3to4/3 4/3to4/2 4/2to4/1 4/1to1 1to1/1"/>
    </vehicle>
    <vehicle id="5" depart="25.00" departLane="best">
        <route edges="2/2to2/1 2/1to1/1 1/1to1/2 1/2to1/3 1/3to1/2 1/2to5/2 5/2to5/3 5/3to5/2 5/2to4/2 4/2to4/1 4/1to1 1to2/1 2/1to3/1 3/1to1 1to1/1 1/1to1/2 1/2to1/3 1/3to1/2 1/2to1/1 1/1to1 1to3/1 3/1to3/2 3/2to2/2 2/2to2/1 2/1to3/1 3/1to4/1 4/1to4/2 4/2to4/1 4/1to1 1to2/1 2/1to2/2 2/2to2/1 2/1to1 1to3/1"/>
    </vehicle>
    <vehicle id="6" depart="30.00" departLane="best">
        <route edges="3/1to3/2 3/2to3/1 3/1to2/1 2/1to1 1to5/1 5/1to4/1 4/1to5/1 5/1to5/2 5/2to5/3 5/3to5/2 5/2to1/2 1/2to2/2 2/2to2/1 2/1to3/1 3/1to2/1 2/1to1 1to4/1 4/1to4/2 4/2to4/1 4/1to4/2 4/2to5/2 5/2to5/1 5/1to1 1to2/1 2/1to2/2 2/2to2/1 2/1to1 1to2/1 2/1to1/1"/>
    </vehicle>
    <vehicle id="7" depart="35.00" departLane="best">
        <route edges="2/1to1/1 1/1to2/1 2/1to2/2 2/2to2/3 2/3to3/3 3/3to3/2 3/2to3/1 3/1to4/1 4/1to5/1 5/1to1 1to3/1 3/1to1 1to2/1 2/1to3/1 3/1to1 1to3/1 3/1to3/2 3/2to3/3 3/3to3/2 3/2to3/1 3/1to3/2 3/2to4/2 4/2to4/1 4/1to3/1 3/1to4/1 4/1to1 1to1/1 1/1to1 1to5/1 5/1to5/2"/>
    </vehicle>
    <vehicle id="8" depart="40.00" departLane="best">
        <route edges="4/3to3/3 3/3to3/2 3/2to3/1 3/1to1 1to2/1 2/1to2/2 2/2to3/2 3/2to3/1 3/1to1 1to2/1 2/1to1/1 1/1to1/2 1/2to5/2 5/2to5/1 5/1to1 1to2/1 2/1to2/2 2/2to2/3 2/3to3/3 3/3to3/2 3/2to3/1 3/1to1 1to5/1 5/1to5/2 5/2to5/1 5/1to1 1to2/1 2/1to2/2 2/2to2/3 2/3to3/3 3/3to3/2 3/2to2/2 2/2to2/1 2/1to1 1to4/1 4/1to4/2 4/2to4/3 4/3to5/3 5/3to5/2 5/2to5/1 5/1to1 1to2/1 2/1to2/2 2/2to3/2"/>
    </vehicle>
    <vehicle id="9" depart="45.00" departLane="best">
        <route edges="1/1to2/1 2/1to1 1to5/1 5/1to5/2 5/2to4/2 4/2to4/1 4/1to1 1to2/1 2/1to3/1 3/1to3/2 3/2to3/1 3/1to1 1to1/1 1/1to1/2 1/2to1/3 1/3to2/3 2/3to2/2 2/2to2/1 2/1to1/1 1/1to5/1 5/1to1 1to3/1 3/1to2/1 2/1to1 1to5/1 5/1to1 1to2/1 2/1to3/1 3/1to4/1 4/1to4/2 4/2to4/3 4/3to3/3 3/3to3/2 3/2to3/3 3/3to2/3 2/3to1/3"/>
    </vehicle>
    <vehicle id="10" depart="50.00" departLane="best">
        <route edges="3/3to4/3 4/3to3/3 3/3to3/2 3/2to4/2 4/2to3/2 3/2to3/1 3/1to2/1 2/1to3/1 3/1to1 1to1/1 1/1to1/2 1/2to5/2 5/2to5/1 5/1to1 1to2/1 2/1to2/2 2/2to2/3 2/3to2/2 2/2to3/2 3/2to2/2 2/2to3/2 3/2to4/2 4/2to5/2 5/2to5/3 5/3to5/2 5/2to5/1 5/1to1 1to2/1 2/1to2/2 2/2to2/3 2/3to1/3 1/3to1/2 1/2to1/1 1/1to1 1to3/1 3/1to3/2 3/2to3/3 3/3to2/3 2/3to2/2 2/2to2/1 2/1to1 1to3/1"/>
    </vehicle>
    <vehicle id="11" depart="55.00" departLane="best">
        <route edges="3/2to3/1 3/1to4/1 4/1to4/2 4/2to4/3 4/3to5/3 5/3to5/2 5/2to4/2 4/2to5/2 5/2to5/3 5/3to1/3 1/3to1/2 1/2to1/1 1/1to1 1to3/1 3/1to3/2 3/2to3/3 3/3to3/2 3/2to3/1 3/1to1 1to1/1 1/1to1/2 1/2to1/1 1/1to1 1to4/1 4/1to4/2 4/2to4/3 4/3to4/2 4/2to4/1 4/1to1 1to1/1 1/1to1/2 1/2to1/3 1/3to5/3 5/3to4/3 4/3to3/3 3/3to3/2 3/2to3/1 3/1to4/1 4/1to3/1 3/1to3/2 3/2to3/1 3/1to1 1to5/1 5/1to4/1"/>
    </vehicle>
    <vehicle id="12" depart="60.00" departLane="best">
        <route edges="1/2to1/1 1/1to1 1to4/1 4/1to4/2 4/2to3/2 3/2to3/1 3/1to1 1to5/1 5/1to1/1 1/1to1 1to3/1 3/1to1 1to5/1 5/1to5/2 5/2to5/3 5/3to5/2 5/2to5/1 5/1to1 1to3/1 3/1to4/1 4/1to4/2 4/2to4/3 4/3to3/3 3/3to3/2 3/2to2/2 2/2to2/3 2/3to2/2 2/2to2/1 2/1to1 1to4/1 4/1to5/1 5/1to1/1 1/1to1/2 1/2to1/1 1/1to5/1 5/1to1 1to4/1 4/1to4/2 4/2to4/3"/>
    </vehicle>
    <vehicle id="13" depart="65.00" departLane="best">
        <route edges="4/3to4/2 4/2to4/1 4/1to1 1to2/1 2/1to2/2 2/2to2/3 2/3to2/2 2/2to2/3 2/3to2/2 2/2to2/1 2/1to1 1to3/1 3/1to4/1 4/1to4/2 4/2to4/3 4/3to5/3 5/3to5/2 5/2to5/1 5/1to1 1to3/1 3/1to1 1to3/1 3/1to3/2 3/2to3/3 3/3to3/2 3/2to3/1 3/1to1 1to5/1 5/1to5/2 5/2to1/2 1/2to5/2 5/2to5/1 5/1to1 1to2/1 2/1to2/2 2/2to2/3 2/3to2/2 2/2to2/1 2/1to1 1to4/1 4/1to1 1to1/1 1/1to1/2 1/2to2/2"/>
    </vehicle>
    <vehicle id="14" depart="70.00" departLane="best">
        <route edges="4/1to3/1 3/1to1 1to5/1 5/1to5/2 5/2to5/1 5/1to1 1to3/1 3/1to3/2 3/2to2/2 2/2to2/1 2/1to1 1to5/1 5/1to5/2 5/2to5/3 5/3to4/3 4/3to5/3 5/3to5/2 5/2to1/2 1/2to2/2 2/2to2/3 2/3to2/2 2/2to2/1 2/1to1 1to1/1 1/1to1 1to3/1 3/1to1 1to5/1 5/1to5/2 5/2to5/3 5/3to5/2 5/2to5/1 5/1to1 1to2/1"/>
    </vehicle>
    <vehicle id="15" depart="75.00" departLane="best">
        <route edges="1/1to1/2 1/2to1/3 1/3to1/2 1/2to1/1 1/1to1 1to4/1 4/1to1 1to1/1 1/1to1/2 1/2to5/2 5/2to5/1 5/1to1 1to2/1 2/1to2/2 2/2to2/3 2/3to3/3 3/3to3/2 3/2to3/1 3/1to1 1to5/1 5/1to5/2 5/2to5/3 5/3to4/3 4/3to4/2 4/2to5/2 5/2to4/2 4/2to5/2 5/2to1/2 1/2to1/3 1/3to1/2 1/2to1/1 1/1to1 1to4/1 4/1to4/2 4/2to4/3 4/3to4/2 4/2to4/1 4/1to1 1to2/1 2/1to2/2 2/2to1/2 1/2to1/1 1/1to2/1 2/1to2/2"/>
    </vehicle>
    <vehicle id="16" depart="80.00" departLane="best">
        <route edges="2/3to1/3 1/3to1/2 1/2to1/1 1/1to1/2 1/2to2/2 2/2to2/3 2/3to1/3 1/3to1/2 1/2to1/1 1/1to2/1 2/1to3/1 3/1to1 1to5/1 5/1to5/2 5/2to5/3 5/3to5/2 5/2to5/1 5/1to1 1to3/1 3/1to3/2 3/2to4/2 4/2to4/1 4/1to1 1to2/1 2/1to1 1to3/1 3/1to1 1to1/1 1/1to1/2 1/2to5/2 5/2to4/2 4/2to4/3 4/3to4/2 4/2to5/2 5/2to5/3 5/3to1/3 1/3to1/2 1/2to2/2"/>
    </vehicle>
    <vehicle id="17" depart="85.00" departLane="best">
        <route edges="5/3to5/2 5/2to4/2 4/2to4/1 4/1to1 1to2/1 2/1to1/1 1/1to5/1 5/1to5/2 5/2to5/3 5/3to4/3 4/3to4/2 4/2to5/2 5/2to5/3 5/3to5/2 5/2to5/1 5/1to4/1 4/1to4/2 4/2to3/2 3/2to4/2 4/2to3/2 3/2to3/1 3/1to2/1 2/1to3/1 3/1to1 1to5/1 5/1to5/2 5/2to5/3 5/3to5/2 5/2to5/1 5/1to1 1to2/1 2/1to2/2 2/2to2/3"/>
    </vehicle>
    <vehicle id="18" depart="90.00" departLane="best">
        <route edges="1/1to2/1 2/1to2/2 2/2to2/3 2/3to3/3 3/3to2/3 2/3to2/2 2/2to3/2 3/2to3/3 3/3to3/2 3/2to3/1 3/1to1 1to3/1 3/1to1 1to4/1 4/1to3/1 3/1to2/1 2/1to1/1 1/1to1/2 1/2to1/1 1/1to1 1to3/1 3/1to3/2 3/2to3/3 3/3to4/3 4/3to4/2 4/2to5/2 5/2to4/2 4/2to4/1 4/1to1 1to5/1"/>
    </vehicle>
    <vehicle id="19" depart="95.00" departLane="best">
        <route edges="4/2to5/2 5/2to5/1 5/1to1 1to3/1 3/1to3/2 3/2to3/3 3/3to3/2 3/2to2/2 2/2to2/1 2/1to1 1to4/1 4/1to1 1to2/1 2/1to2/2 2/2to3/2 3/2to3/1 3/1to4/1 4/1to4/2 4/2to3/2 3/2to2/2 2/2to2/3 2/3to3/3 3/3to3/2 3/2to4/2 4/2to5/2 5/2to5/1 5/1to1 1to3/1 3/1to3/2 3/2to3/3 3/3to2/3"/>
    </vehicle>
    <vehicle id="20" depart="100.00" departLane="best">
        <route edges="4/2to4/3 4/3to4/2 4/2to3/2 3/2to4/2 4/2to4/1 4/1to1 1to5/1 5/1to5/2 5/2to5/3 5/3to1/3 1/3to1/2 1/2to1/1 1/1to1 1to4/1 4/1to1 1to1/1 1/1to1/2 1/2to1/1 1/1to1 1to4/1 4/1to4/2 4/2to4/3 4/3to4/2 4/2to4/1 4/1to5/1 5/1to5/2 5/2to5/1 5/1to1 1to2/1 2/1to1/1 1/1to1 1to4/1 4/1to3/1 3/1to3/2 3/2to3/3 3/3to2/3 2/3to2/2 2/2to2/1 2/1to1/1 1/1to1"/>
    </vehicle>
    <vehicle id="21" depart="105.00" departLane="best">
        <route edges="5/2to5/3 5/3to5/2 5/2to5/1 5/1to1 1to3/1 3/1to3/2 3/2to3/3 3/3to4/3 4/3to4/2 4/2to4/1 4/1to5/1 5/1to5/2 5/2to5/1 5/1to1 1to3/1 3/1to3/2 3/2to3/3 3/3to4/3 4/3to4/2 4/2to4/1 4/1to1 1to2/1 2/1to2/2 2/2to2/3 2/3to3/3 3/3to3/2 3/2to4/2 4/2to3/2 3/2to3/1 3/1to4/1 4/1to1 1to5/1 5/1to1 1to2/1 2/1to2/2 2/2to2/3 2/3to2/2 2/2to2/1 2/1to3/1 3/1to1 1to4/1 4/1to1 1to3/1 3/1to1"/>
    </vehicle>
    <vehicle id="22" depart="110.00" departLane="best">
        <route edges="2/2to3/2 3/2to3/1 3/1to1 1to5/1 5/1to5/2 5/2to5/3 5/3to5/2 5/2to5/1 5/1to1/1 1/1to2/1 2/1to2/2 2/2to2/3 2/3to3/3 3/3to3/2 3/2to3/1 3/1to1 1to5/1 5/1to5/2 5/2to5/3 5/3to4/3 4/3to4/2 4/2to4/1 4/1to1 1to1/1 1/1to1/2 1/2to1/1 1/1to1 1to2/1 2/1to1 1to4/1 4/1to4/2 4/2to4/3 4/3to4/2 4/2to5/2 5/2to5/3 5/3to4/3 4/3to4/2 4/2to4/1 4/1to3/1 3/1to1 1to2/1 2/1to3/1 3/1to1 1to1/1 1/1to1/2 1/2to1/1"/>
    </vehicle>
    <vehicle id="23" depart="115.00" departLane="best">
        <route edges="1/1to5/1 5/1to1/1 1/1to1/2 1/2to5/2 5/2to5/3 5/3to5/2 5/2to5/1 5/1to1 1to2/1 2/1to2/2 2/2to2/3 2/3to1/3 1/3to1/2 1/2to1/1 1/1to1 1to3/1 3/1to3/2 3/2to3/3 3/3to3/2 3/2to3/1 3/1to1 1to5/1 5/1to5/2 5/2to5/3 5/3to4/3 4/3to4/2 4/2to4/1 4/1to1 1to2/1 2/1to2/2 2/2to2/1 2/1to1 1to4/1 4/1to4/2 4/2to4/1 4/1to5/1 5/1to4/1 4/1to1 1to2/1 2/1to2/2 2/2to2/1 2/1to1 1to5/1 5/1to1"/>
    </vehicle>
    <vehicle id="24" depart="120.00" departLane="best">
        <route edges="1to5/1 5/1to1 1to3/1 3/1to3/2 3/2to3/3 3/3to2/3 2/3to2/2 2/2to2/1 2/1to1/1 1/1to1 1to2/1 2/1to2/2 2/2to2/3 2/3to1/3 1/3to1/2 1/2to1/1 1/1to1 1to3/1 3/1to3/2 3/2to4/2 4/2to3/2 3/2to3/3 3/3to4/3 4/3to4/2 4/2to4/1 4/1to1 1to1/1 1/1to5/1 5/1to5/2 5/2to1/2 1/2to1/1 1/1to1 1to3/1 3/1to3/2 3/2to3/3 3/3to2/3 2/3to2/2 2/2to2/1 2/1to1 1to4/1 4/1to3/1 3/1to4/1 4/1to4/2 4/2to4/1"/>
    </vehicle>
    <vehicle id="25" depart="125.00" departLane="best">
        <route edges="3/3to3/2 3/2to4/2 4/2to4/3 4/3to3/3 3/3to2/3 2/3to3/3 3/3to3/2 3/2to3/1 3/1to1 1to5/1 5/1to5/2 5/2to1/2 1/2to1/3 1/3to1/2 1/2to1/1 1/1to1 1to3/1 3/1to3/2 3/2to3/3 3/3to3/2 3/2to3/1 3/1to4/1 4/1to4/2 4/2to4/1 4/1to1 1to4/1 4/1to1 1to1/1 1/1to1/2 1/2to1/3 1/3to1/2 1/2to1/1 1/1to1/2 1/2to1/1 1/1to1 1to3/1 3/1to3/2 3/2to3/1 3/1to2/1 2/1to1/1"/>
    </vehicle>
    <vehicle id="26" depart="130.00" departLane="best">
        <route edges="2/2to2/1 2/1to2/2 2/2to2/3 2/3to3/3 3/3to3/2 3/2to3/1 3/1to1 1to5/1 5/1to1 1to1/1 1/1to1 1to4/1 4/1to3/1 3/1to1 1to1/1 1/1to1/2 1/2to2/2 2/2to2/1 2/1to1/1 1/1to1/2 1/2to1/1 1/1to1 1to3/1 3/1to3/2 3/2to4/2 4/2to4/1 4/1to1 1to2/1 2/1to3/1 3/1to1 1to2/1 2/1to2/2 2/2to2/3 2/3to3/3 3/3to3/2 3/2to2/2 2/2to1/2"/>
    </vehicle>
    <vehicle id="27" depart="135.00" departLane="best">
        <route edges="4/1to4/2 4/2to3/2 3/2to2/2 2/2to3/2 3/2to4/2 4/2to4/1 4/1to1 1to1/1 1/1to1/2 1/2to1/3 1/3to5/3 5/3to5/2 5/2to5/1 5/1to4/1 4/1to5/1 5/1to1 1to2/1 2/1to2/2 2/2to2/3 2/3to3/3 3/3to3/2 3/2to3/1 3/1to2/1 2/1to1/1 1/1to1 1to4/1 4/1to4/2 4/2to4/3 4/3to3/3 3/3to4/3 4/3to4/2 4/2to4/3 4/3to4/2 4/2to5/2"/>
    </vehicle>
    <vehicle id="28" depart="140.00" departLane="best">
        <route edges="3/3to4/3 4/3to5/3 5/3to1/3 1/3to1/2 1/2to1/1 1/1to1 1to1/1 1/1to1 1to3/1 3/1to4/1 4/1to1 1to1/1 1/1to1/2 1/2to1/3 1/3to1/2 1/2to1/1 1/1to1 1to4/1 4/1to4/2 4/2to4/1 4/1to1 1to1/1 1/1to1/2 1/2to1/3 1/3to1/2 1/2to1/1 1/1to1 1to3/1 3/1to3/2 3/2to4/2 4/2to4/1 4/1to1 1to2/1 2/1to2/2 2/2to2/1 2/1to1 1to5/1 5/1to5/2 5/2to1/2 1/2to5/2 5/2to5/3 5/3to1/3 1/3to1/2 1/2to1/1 1/1to1 1to4/1 4/1to5/1"/>
    </vehicle>
    <vehicle id="29" depart="145.00" departLane="best">
        <route edges="3/3to4/3 4/3to4/2 4/2to4/1 4/1to3/1 3/1to1 1to5/1 5/1to1 1to4/1 4/1to1 1to2/1 2/1to1 1to4/1 4/1to4/2 4/2to4/3 4/3to4/2 4/2to4/1 4/1to1 1to2/1 2/1to1 1to1/1 1/1to1/2 1/2to1/1 1/1to1 1to2/1 2/1to1/1 1/1to1/2 1/2to1/3 1/3to2/3 2/3to2/2 2/2to2/1 2/1to1 1to3/1 3/1to2/1 2/1to2/2 2/2to2/3 2/3to2/2"/>
    </vehicle>
    <vehicle id="30" depart="150.00" departLane="best">
        <route edges="5/3to4/3 4/3to4/2 4/2to5/2 5/2to5/1 5/1to4/1 4/1to4/2 4/2to4/3 4/3to5/3 5/3to4/3 4/3to4/2 4/2to3/2 3/2to4/2 4/2to3/2 3/2to2/2 2/2to2/1 2/1to1/1 1/1to1/2 1/2to1/3 1/3to2/3 2/3to3/3 3/3to3/2 3/2to3/1 3/1to1 1to5/1 5/1to1 1to2/1 2/1to1/1 1/1to1/2 1/2to1/3 1/3to2/3"/>
    </vehicle>
    <vehicle id="31" depart="155.00" departLane="best">
        <route edges="2/2to1/2 1/2to1/1 1/1to1 1to4/1 4/1to3/1 3/1to1 1to2/1 2/1to1 1to5/1 5/1to5/2 5/2to1/2 1/2to1/1 1/1to1/2 1/2to5/2 5/2to5/3 5/3to5/2 5/2to5/3 5/3to5/2 5/2to5/1 5/1to1 1to1/1 1/1to2/1"/>
    </vehicle>
    <vehicle id="32" depart="160.00" departLane="best">
        <route edges="4/2to4/1 4/1to1 1to1/1 1/1to1 1to4/1 4/1to4/2 4/2to3/2 3/2to3/1 3/1to1 1to1/1 1/1to2/1 2/1to1 1to4/1 4/1to4/2 4/2to4/3 4/3to3/3 3/3to3/2 3/2to3/3 3/3to3/2 3/2to3/1 3/1to1 1to5/1 5/1to1/1 1/1to1/2 1/2to1/3 1/3to1/2 1/2to1/1 1/1to1 1to5/1 5/1to1"/>
    </vehicle>
    <vehicle id="33" depart="165.00" departLane="best">
        <route edges="5/1to1/1 1/1to1 1to4/1 4/1to1 1to5/1 5/1to5/2 5/2to5/3 5/3to5/2 5/2to1/2 1/2to1/1 1/1to1 1to4/1 4/1to4/2 4/2to4/3 4/3to3/3 3/3to3/2 3/2to3/1 3/1to1 1to1/1 1/1to1/2 1/2to1/3 1/3to5/3 5/3to5/2 5/2to5/1 5/1to1 1to3/1 3/1to4/1 4/1to1 1to2/1 2/1to1/1 1/1to2/1 2/1to1 1to4/1 4/1to1 1to2/1 2/1to2/2 2/2to2/3 2/3to2/2 2/2to2/1 2/1to3/1 3/1to1"/>
    </vehicle>
    <vehicle id="34" depart="170.00" departLane="best">
        <route edges="4/2to4/1 4/1to3/1 3/1to3/2 3/2to3/1 3/1to4/1 4/1to1 1to2/1 2/1to2/2 2/2to2/3 2/3to2/2 2/2to3/2 3/2to3/3 3/3to3/2 3/2to4/2 4/2to4/1 4/1to5/1 5/1to5/2 5/2to5/3 5/3to5/2 5/2to1/2 1/2to1/3 1/3to5/3 5/3to5/2 5/2to5/1 5/1to1 1to1/1 1/1to1/2 1/2to1/3 1/3to5/3 5/3to5/2 5/2to5/1 5/1to1 1to3/1 3/1to3/2 3/2to3/1 3/1to1 1to1/1 1/1to2/1"/>
    </vehicle>
    <vehicle id="35" depart="175.00" departLane="best">
        <route edges="1/2to1/3 1/3to1/2 1/2to1/1 1/1to1 1to3/1 3/1to3/2 3/2to2/2 2/2to2/1 2/1to1 1to4/1 4/1to3/1 3/1to4/1 4/1to4/2 4/2to3/2 3/2to3/1 3/1to1 1to5/1 5/1to5/2 5/2to4/2 4/2to4/1 4/1to1 1to1/1 1/1to1/2 1/2to1/3 1/3to5/3 5/3to5/2 5/2to5/1 5/1to4/1 4/1to5/1 5/1to4/1 4/1to4/2 4/2to4/3 4/3to4/2 4/2to3/2 3/2to3/1 3/1to1 1to1/1 1/1to1 1to3/1 3/1to4/1 4/1to3/1 3/1to3/2 3/2to2/2"/>
    </vehicle>
</routes>
