<?xml version="1.0" encoding="UTF-8"?>

<!-- generated on Thu Jan 19 15:01:33 2017 by SUMO netgenerate Version 0.28.0
<?xml version="1.0" encoding="UTF-8"?>

<configuration xmlns:xsi="http://www.w3.org/2001/XMLSchema-instance" xsi:noNamespaceSchemaLocation="http://sumo.dlr.de/xsd/netgenerateConfiguration.xsd">

    <spider_network>
        <spider value="true"/>
        <spider.arm-number value="5"/>
        <spider.circle-number value="3"/>
        <spider.space-radius value="100"/>
    </spider_network>

    <output>
        <output-file value="./map/spider/spider.net.xml"/>
    </output>

</configuration>
-->

<net version="0.27" xmlns:xsi="http://www.w3.org/2001/XMLSchema-instance" xsi:noNamespaceSchemaLocation="http://sumo.dlr.de/xsd/net_file.xsd">

    <location netOffset="242.71,285.32" convBoundary="0.00,0.00,542.71,570.63" origBoundary="-242.71,-285.32,300.00,285.32" projParameter="!"/>

    <edge id=":1_0" function="internal">
        <lane id=":1_0_0" index="0" speed="13.90" length="5.43" shape="242.98,291.51 242.29,290.10 241.37,289.41 240.22,289.43 238.84,290.16"/>
    </edge>
    <edge id=":1_1" function="internal">
        <lane id=":1_1_0" index="0" speed="13.90" length="10.63" shape="242.98,291.51 241.95,288.61 240.88,286.64 239.34,285.02 236.90,283.14"/>
    </edge>
    <edge id=":1_2" function="internal">
        <lane id=":1_2_0" index="0" speed="13.90" length="12.64" shape="242.98,291.51 242.11,288.24 241.82,285.32 242.11,282.40 242.98,279.13"/>
    </edge>
    <edge id=":1_3" function="internal">
        <lane id=":1_3_0" index="0" speed="13.90" length="12.09" shape="242.98,291.51 242.38,288.08 243.13,285.63 245.23,284.16 248.68,283.67"/>
    </edge>
    <edge id=":1_4" function="internal">
        <lane id=":1_4_0" index="0" speed="13.90" length="4.82" shape="242.98,291.51 243.38,290.08 244.04,289.43 244.95,289.57 246.12,290.49"/>
    </edge>
    <edge id=":1_5" function="internal">
        <lane id=":1_5_0" index="0" speed="13.90" length="5.43" shape="248.68,286.97 247.13,287.19 246.19,287.85 245.85,288.95 246.12,290.49"/>
    </edge>
    <edge id=":1_6" function="internal">
        <lane id=":1_6_0" index="0" speed="13.90" length="10.63" shape="248.68,286.97 245.60,287.05 243.40,287.46 241.38,288.42 238.84,290.16"/>
    </edge>
    <edge id=":1_7" function="internal">
        <lane id=":1_7_0" index="0" speed="13.90" length="12.64" shape="248.68,286.97 245.30,286.78 242.43,286.16 239.75,284.98 236.90,283.14"/>
    </edge>
    <edge id=":1_8" function="internal">
        <lane id=":1_8_0" index="0" speed="13.90" length="12.09" shape="248.68,286.97 245.23,286.48 243.13,285.01 242.38,282.56 242.98,279.13"/>
    </edge>
    <edge id=":1_9" function="internal">
        <lane id=":1_9_0" index="0" speed="13.90" length="4.82" shape="248.68,286.97 247.44,286.14 247.03,285.32 247.44,284.49 248.68,283.67"/>
    </edge>
    <edge id=":1_10" function="internal">
        <lane id=":1_10_0" index="0" speed="13.90" length="5.43" shape="246.12,280.15 245.85,281.69 246.19,282.79 247.13,283.45 248.68,283.67"/>
    </edge>
    <edge id=":1_11" function="internal">
        <lane id=":1_11_0" index="0" speed="13.90" length="10.63" shape="246.12,280.15 245.25,283.10 244.96,285.32 245.25,287.53 246.12,290.49"/>
    </edge>
    <edge id=":1_12" function="internal">
        <lane id=":1_12_0" index="0" speed="13.90" length="12.64" shape="246.12,280.15 244.90,283.30 243.42,285.84 241.47,288.03 238.84,290.16"/>
    </edge>
    <edge id=":1_13" function="internal">
        <lane id=":1_13_0" index="0" speed="13.90" length="12.09" shape="246.12,280.15 244.59,283.27 242.54,284.82 239.98,284.77 236.90,283.14"/>
    </edge>
    <edge id=":1_14" function="internal">
        <lane id=":1_14_0" index="0" speed="13.90" length="4.82" shape="246.12,280.15 244.95,281.07 244.04,281.21 243.38,280.56 242.98,279.13"/>
    </edge>
    <edge id=":1_15" function="internal">
        <lane id=":1_15_0" index="0" speed="13.90" length="5.43" shape="238.84,280.47 240.22,281.20 241.37,281.22 242.29,280.53 242.98,279.13"/>
    </edge>
    <edge id=":1_16" function="internal">
        <lane id=":1_16_0" index="0" speed="13.90" length="10.63" shape="238.84,280.47 241.38,282.21 243.40,283.17 245.60,283.58 248.68,283.67"/>
    </edge>
    <edge id=":1_17" function="internal">
        <lane id=":1_17_0" index="0" speed="13.90" length="12.64" shape="238.84,280.47 241.47,282.61 243.42,284.80 244.90,287.33 246.12,290.49"/>
    </edge>
    <edge id=":1_18" function="internal">
        <lane id=":1_18_0" index="0" speed="13.90" length="12.09" shape="238.84,280.47 241.34,282.89 242.18,285.32 241.34,287.74 238.84,290.16"/>
    </edge>
    <edge id=":1_19" function="internal">
        <lane id=":1_19_0" index="0" speed="13.90" length="4.82" shape="238.84,280.47 239.36,281.87 239.21,282.78 238.39,283.20 236.90,283.14"/>
    </edge>
    <edge id=":1_20" function="internal">
        <lane id=":1_20_0" index="0" speed="13.90" length="5.43" shape="236.90,287.49 238.03,286.41 238.40,285.32 238.03,284.23 236.90,283.14"/>
    </edge>
    <edge id=":1_21" function="internal">
        <lane id=":1_21_0" index="0" speed="13.90" length="10.63" shape="236.90,287.49 239.34,285.61 240.88,283.99 241.95,282.03 242.98,279.13"/>
    </edge>
    <edge id=":1_22" function="internal">
        <lane id=":1_22_0" index="0" speed="13.90" length="12.64" shape="236.90,287.49 239.75,285.66 242.43,284.48 245.30,283.85 248.68,283.67"/>
    </edge>
    <edge id=":1_23" function="internal">
        <lane id=":1_23_0" index="0" speed="13.90" length="12.09" shape="236.90,287.49 239.98,285.86 242.54,285.82 244.59,287.36 246.12,290.49"/>
    </edge>
    <edge id=":1_24" function="internal">
        <lane id=":1_24_0" index="0" speed="13.90" length="4.82" shape="236.90,287.49 238.39,287.43 239.21,287.86 239.36,288.77 238.84,290.16"/>
    </edge>
    <edge id=":1/1_0" function="internal">
        <lane id=":1/1_0_0" index="0" speed="13.90" length="8.81" shape="345.86,286.97 344.59,287.32 343.09,288.39 341.36,290.17 339.41,292.66"/>
    </edge>
    <edge id=":1/1_1" function="internal">
        <lane id=":1/1_1_0" index="0" speed="13.90" length="11.03" shape="345.86,286.97 334.83,286.97"/>
    </edge>
    <edge id=":1/1_2" function="internal">
        <lane id=":1/1_2_0" index="0" speed="13.90" length="4.57" shape="345.86,286.97 343.79,286.53 341.69,285.27"/>
    </edge>
    <edge id=":1/1_3" function="internal">
        <lane id=":1/1_3_0" index="0" speed="13.90" length="2.41" shape="345.86,286.97 344.62,286.14 344.21,285.32"/>
    </edge>
    <edge id=":1/1_16" function="internal">
        <lane id=":1/1_16_0" index="0" speed="13.90" length="7.31" shape="341.69,285.27 341.58,285.20 339.23,283.00 336.74,279.91"/>
    </edge>
    <edge id=":1/1_17" function="internal">
        <lane id=":1/1_17_0" index="0" speed="13.90" length="2.41" shape="344.21,285.32 344.62,284.49 345.86,283.67"/>
    </edge>
    <edge id=":1/1_4" function="internal">
        <lane id=":1/1_4_0" index="0" speed="13.90" length="8.81" shape="339.41,277.97 341.36,280.46 343.09,282.24 344.59,283.31 345.86,283.67"/>
    </edge>
    <edge id=":1/1_5" function="internal">
        <lane id=":1/1_5_0" index="0" speed="13.90" length="15.83" shape="339.41,277.97 341.41,281.65 342.08,285.32 341.41,288.99 339.41,292.66"/>
    </edge>
    <edge id=":1/1_6" function="internal">
        <lane id=":1/1_6_0" index="0" speed="13.90" length="14.60" shape="339.41,277.97 341.57,281.91 341.53,284.72 339.28,286.40 334.83,286.97"/>
    </edge>
    <edge id=":1/1_7" function="internal">
        <lane id=":1/1_7_0" index="0" speed="13.90" length="4.82" shape="339.41,277.97 339.47,279.46 339.04,280.28 338.13,280.43 336.74,279.91"/>
    </edge>
    <edge id=":1/1_8" function="internal">
        <lane id=":1/1_8_0" index="0" speed="13.90" length="6.10" shape="334.83,283.67 336.69,283.43 337.62,282.73 337.64,281.56 336.74,279.91"/>
    </edge>
    <edge id=":1/1_9" function="internal">
        <lane id=":1/1_9_0" index="0" speed="13.90" length="11.03" shape="334.83,283.67 345.86,283.67"/>
    </edge>
    <edge id=":1/1_10" function="internal">
        <lane id=":1/1_10_0" index="0" speed="13.90" length="6.39" shape="334.83,283.67 339.28,284.23 340.80,285.37"/>
    </edge>
    <edge id=":1/1_11" function="internal">
        <lane id=":1/1_11_0" index="0" speed="13.90" length="2.41" shape="334.83,283.67 336.06,284.49 336.48,285.32"/>
    </edge>
    <edge id=":1/1_18" function="internal">
        <lane id=":1/1_18_0" index="0" speed="13.90" length="8.22" shape="340.80,285.37 341.53,285.92 341.57,288.73 339.41,292.66"/>
    </edge>
    <edge id=":1/1_19" function="internal">
        <lane id=":1/1_19_0" index="0" speed="13.90" length="2.41" shape="336.48,285.32 336.06,286.14 334.83,286.97"/>
    </edge>
    <edge id=":1/1_12" function="internal">
        <lane id=":1/1_12_0" index="0" speed="13.90" length="6.10" shape="336.74,290.72 337.64,289.08 337.62,287.91 336.69,287.20 334.83,286.97"/>
    </edge>
    <edge id=":1/1_13" function="internal">
        <lane id=":1/1_13_0" index="0" speed="13.90" length="11.65" shape="336.74,290.72 338.21,288.02 338.70,285.32 338.21,282.61 336.74,279.91"/>
    </edge>
    <edge id=":1/1_14" function="internal">
        <lane id=":1/1_14_0" index="0" speed="13.90" length="11.88" shape="336.74,290.72 339.23,287.63 341.58,285.43 343.79,284.11 345.86,283.67"/>
    </edge>
    <edge id=":1/1_15" function="internal">
        <lane id=":1/1_15_0" index="0" speed="13.90" length="4.82" shape="336.74,290.72 338.13,290.20 339.04,290.36 339.47,291.17 339.41,292.66"/>
    </edge>
    <edge id=":1/2_0" function="internal">
        <lane id=":1/2_0_0" index="0" speed="13.90" length="8.81" shape="445.86,286.97 444.59,287.32 443.09,288.39 441.36,290.17 439.41,292.66"/>
    </edge>
    <edge id=":1/2_1" function="internal">
        <lane id=":1/2_1_0" index="0" speed="13.90" length="11.03" shape="445.86,286.97 434.83,286.97"/>
    </edge>
    <edge id=":1/2_2" function="internal">
        <lane id=":1/2_2_0" index="0" speed="13.90" length="4.57" shape="445.86,286.97 443.79,286.53 441.69,285.27"/>
    </edge>
    <edge id=":1/2_3" function="internal">
        <lane id=":1/2_3_0" index="0" speed="13.90" length="2.41" shape="445.86,286.97 444.62,286.14 444.21,285.32"/>
    </edge>
    <edge id=":1/2_16" function="internal">
        <lane id=":1/2_16_0" index="0" speed="13.90" length="7.31" shape="441.69,285.27 441.58,285.20 439.23,283.00 436.74,279.91"/>
    </edge>
    <edge id=":1/2_17" function="internal">
        <lane id=":1/2_17_0" index="0" speed="13.90" length="2.41" shape="444.21,285.32 444.62,284.49 445.86,283.67"/>
    </edge>
    <edge id=":1/2_4" function="internal">
        <lane id=":1/2_4_0" index="0" speed="13.90" length="8.81" shape="439.41,277.97 441.36,280.46 443.09,282.24 444.59,283.31 445.86,283.67"/>
    </edge>
    <edge id=":1/2_5" function="internal">
        <lane id=":1/2_5_0" index="0" speed="13.90" length="15.83" shape="439.41,277.97 441.41,281.65 442.08,285.32 441.41,288.99 439.41,292.66"/>
    </edge>
    <edge id=":1/2_6" function="internal">
        <lane id=":1/2_6_0" index="0" speed="13.90" length="14.60" shape="439.41,277.97 441.57,281.91 441.53,284.72 439.28,286.40 434.83,286.97"/>
    </edge>
    <edge id=":1/2_7" function="internal">
        <lane id=":1/2_7_0" index="0" speed="13.90" length="4.82" shape="439.41,277.97 439.47,279.46 439.04,280.28 438.13,280.43 436.74,279.91"/>
    </edge>
    <edge id=":1/2_8" function="internal">
        <lane id=":1/2_8_0" index="0" speed="13.90" length="6.10" shape="434.83,283.67 436.69,283.43 437.62,282.73 437.64,281.56 436.74,279.91"/>
    </edge>
    <edge id=":1/2_9" function="internal">
        <lane id=":1/2_9_0" index="0" speed="13.90" length="11.03" shape="434.83,283.67 445.86,283.67"/>
    </edge>
    <edge id=":1/2_10" function="internal">
        <lane id=":1/2_10_0" index="0" speed="13.90" length="6.39" shape="434.83,283.67 439.28,284.23 440.80,285.37"/>
    </edge>
    <edge id=":1/2_11" function="internal">
        <lane id=":1/2_11_0" index="0" speed="13.90" length="2.41" shape="434.83,283.67 436.06,284.49 436.48,285.32"/>
    </edge>
    <edge id=":1/2_18" function="internal">
        <lane id=":1/2_18_0" index="0" speed="13.90" length="8.22" shape="440.80,285.37 441.53,285.92 441.57,288.73 439.41,292.66"/>
    </edge>
    <edge id=":1/2_19" function="internal">
        <lane id=":1/2_19_0" index="0" speed="13.90" length="2.41" shape="436.48,285.32 436.06,286.14 434.83,286.97"/>
    </edge>
    <edge id=":1/2_12" function="internal">
        <lane id=":1/2_12_0" index="0" speed="13.90" length="6.10" shape="436.74,290.72 437.64,289.08 437.62,287.91 436.69,287.20 434.83,286.97"/>
    </edge>
    <edge id=":1/2_13" function="internal">
        <lane id=":1/2_13_0" index="0" speed="13.90" length="11.65" shape="436.74,290.72 438.21,288.02 438.70,285.32 438.21,282.61 436.74,279.91"/>
    </edge>
    <edge id=":1/2_14" function="internal">
        <lane id=":1/2_14_0" index="0" speed="13.90" length="11.88" shape="436.74,290.72 439.23,287.63 441.58,285.43 443.79,284.11 445.86,283.67"/>
    </edge>
    <edge id=":1/2_15" function="internal">
        <lane id=":1/2_15_0" index="0" speed="13.90" length="4.82" shape="436.74,290.72 438.13,290.20 439.04,290.36 439.47,291.17 439.41,292.66"/>
    </edge>
    <edge id=":1/3_0" function="internal">
        <lane id=":1/3_0_0" index="0" speed="13.90" length="15.83" shape="539.41,277.97 541.41,281.65 542.08,285.32 541.41,288.99 539.41,292.66"/>
    </edge>
    <edge id=":1/3_1" function="internal">
        <lane id=":1/3_1_0" index="0" speed="13.90" length="8.88" shape="539.41,277.97 541.57,281.91 541.53,284.72 540.26,285.67"/>
    </edge>
    <edge id=":1/3_2" function="internal">
        <lane id=":1/3_2_0" index="0" speed="13.90" length="2.67" shape="539.41,277.97 539.47,279.46 539.04,280.28 538.78,280.32"/>
    </edge>
    <edge id=":1/3_9" function="internal">
        <lane id=":1/3_9_0" index="0" speed="13.90" length="5.72" shape="540.26,285.67 539.28,286.40 534.83,286.97"/>
    </edge>
    <edge id=":1/3_10" function="internal">
        <lane id=":1/3_10_0" index="0" speed="13.90" length="2.15" shape="538.78,280.32 538.13,280.43 536.74,279.91"/>
    </edge>
    <edge id=":1/3_3" function="internal">
        <lane id=":1/3_3_0" index="0" speed="13.90" length="6.10" shape="534.83,283.67 536.69,283.43 537.62,282.73 537.64,281.56 536.74,279.91"/>
    </edge>
    <edge id=":1/3_4" function="internal">
        <lane id=":1/3_4_0" index="0" speed="13.90" length="14.60" shape="534.83,283.67 539.28,284.23 541.53,285.92 541.57,288.73 539.41,292.66"/>
    </edge>
    <edge id=":1/3_5" function="internal">
        <lane id=":1/3_5_0" index="0" speed="13.90" length="4.82" shape="534.83,283.67 536.06,284.49 536.48,285.32 536.06,286.14 534.83,286.97"/>
    </edge>
    <edge id=":1/3_6" function="internal">
        <lane id=":1/3_6_0" index="0" speed="13.90" length="6.10" shape="536.74,290.72 537.64,289.08 537.62,287.91 536.69,287.20 534.83,286.97"/>
    </edge>
    <edge id=":1/3_7" function="internal">
        <lane id=":1/3_7_0" index="0" speed="13.90" length="11.65" shape="536.74,290.72 538.21,288.02 538.70,285.32 538.21,282.61 536.74,279.91"/>
    </edge>
    <edge id=":1/3_8" function="internal">
        <lane id=":1/3_8_0" index="0" speed="13.90" length="2.22" shape="536.74,290.72 538.13,290.20 538.86,290.33"/>
    </edge>
    <edge id=":1/3_11" function="internal">
        <lane id=":1/3_11_0" index="0" speed="13.90" length="2.60" shape="538.86,290.33 539.04,290.36 539.47,291.17 539.41,292.66"/>
    </edge>
    <edge id=":2/1_0" function="internal">
        <lane id=":2/1_0_0" index="0" speed="13.90" length="8.81" shape="273.01,383.93 272.28,382.83 270.80,381.74 268.58,380.65 265.60,379.56"/>
    </edge>
    <edge id=":2/1_1" function="internal">
        <lane id=":2/1_1_0" index="0" speed="13.90" length="11.03" shape="273.01,383.93 269.60,373.44"/>
    </edge>
    <edge id=":2/1_2" function="internal">
        <lane id=":2/1_2_0" index="0" speed="13.90" length="4.57" shape="273.01,383.93 272.79,381.83 273.34,379.44"/>
    </edge>
    <edge id=":2/1_3" function="internal">
        <lane id=":2/1_3_0" index="0" speed="13.90" length="2.41" shape="273.01,383.93 273.42,382.50 274.07,381.85"/>
    </edge>
    <edge id=":2/1_16" function="internal">
        <lane id=":2/1_16_0" index="0" speed="13.90" length="7.31" shape="273.34,379.44 273.37,379.32 274.74,376.40 276.90,373.08"/>
    </edge>
    <edge id=":2/1_17" function="internal">
        <lane id=":2/1_17_0" index="0" speed="13.90" length="2.41" shape="274.07,381.85 274.98,381.99 276.15,382.91"/>
    </edge>
    <edge id=":2/1_4" function="internal">
        <lane id=":2/1_4_0" index="0" speed="13.90" length="8.81" shape="279.57,375.02 277.81,377.65 276.65,379.84 276.10,381.60 276.15,382.91"/>
    </edge>
    <edge id=":2/1_5" function="internal">
        <lane id=":2/1_5_0" index="0" speed="13.90" length="15.83" shape="279.57,375.02 276.70,378.06 273.41,379.83 269.71,380.33 265.60,379.56"/>
    </edge>
    <edge id=":2/1_6" function="internal">
        <lane id=":2/1_6_0" index="0" speed="13.90" length="14.60" shape="279.57,375.02 276.50,378.29 273.81,379.12 271.51,377.50 269.60,373.44"/>
    </edge>
    <edge id=":2/1_7" function="internal">
        <lane id=":2/1_7_0" index="0" speed="13.90" length="4.82" shape="279.57,375.02 278.18,375.53 277.27,375.38 276.84,374.57 276.90,373.08"/>
    </edge>
    <edge id=":2/1_8" function="internal">
        <lane id=":2/1_8_0" index="0" speed="13.90" length="6.10" shape="272.74,372.42 273.54,374.12 274.50,374.79 275.62,374.45 276.90,373.08"/>
    </edge>
    <edge id=":2/1_9" function="internal">
        <lane id=":2/1_9_0" index="0" speed="13.90" length="11.03" shape="272.74,372.42 276.15,382.91"/>
    </edge>
    <edge id=":2/1_10" function="internal">
        <lane id=":2/1_10_0" index="0" speed="13.90" length="6.39" shape="272.74,372.42 273.58,376.83 272.97,378.63"/>
    </edge>
    <edge id=":2/1_11" function="internal">
        <lane id=":2/1_11_0" index="0" speed="13.90" length="2.41" shape="272.74,372.42 272.34,373.85 271.68,374.50"/>
    </edge>
    <edge id=":2/1_18" function="internal">
        <lane id=":2/1_18_0" index="0" speed="13.90" length="8.22" shape="272.97,378.63 272.67,379.49 270.01,380.40 265.60,379.56"/>
    </edge>
    <edge id=":2/1_19" function="internal">
        <lane id=":2/1_19_0" index="0" speed="13.90" length="2.41" shape="271.68,374.50 270.77,374.36 269.60,373.44"/>
    </edge>
    <edge id=":2/1_12" function="internal">
        <lane id=":2/1_12_0" index="0" speed="13.90" length="6.10" shape="266.62,376.42 268.46,376.77 269.58,376.39 269.95,375.28 269.60,373.44"/>
    </edge>
    <edge id=":2/1_13" function="internal">
        <lane id=":2/1_13_0" index="0" speed="13.90" length="11.65" shape="266.62,376.42 269.65,376.98 272.37,376.62 274.79,375.31 276.90,373.08"/>
    </edge>
    <edge id=":2/1_14" function="internal">
        <lane id=":2/1_14_0" index="0" speed="13.90" length="11.88" shape="266.62,376.42 270.33,377.84 273.15,379.39 275.09,381.08 276.15,382.91"/>
    </edge>
    <edge id=":2/1_15" function="internal">
        <lane id=":2/1_15_0" index="0" speed="13.90" length="4.82" shape="266.62,376.42 267.55,377.59 267.68,378.50 267.04,379.16 265.60,379.56"/>
    </edge>
    <edge id=":2/2_0" function="internal">
        <lane id=":2/2_0_0" index="0" speed="13.90" length="8.81" shape="303.91,479.04 303.18,477.94 301.70,476.84 299.48,475.75 296.51,474.66"/>
    </edge>
    <edge id=":2/2_1" function="internal">
        <lane id=":2/2_1_0" index="0" speed="13.90" length="11.03" shape="303.91,479.04 300.50,468.55"/>
    </edge>
    <edge id=":2/2_2" function="internal">
        <lane id=":2/2_2_0" index="0" speed="13.90" length="4.57" shape="303.91,479.04 303.69,476.94 304.24,474.55"/>
    </edge>
    <edge id=":2/2_3" function="internal">
        <lane id=":2/2_3_0" index="0" speed="13.90" length="2.41" shape="303.91,479.04 304.32,477.61 304.97,476.96"/>
    </edge>
    <edge id=":2/2_16" function="internal">
        <lane id=":2/2_16_0" index="0" speed="13.90" length="7.31" shape="304.24,474.55 304.27,474.43 305.64,471.51 307.80,468.18"/>
    </edge>
    <edge id=":2/2_17" function="internal">
        <lane id=":2/2_17_0" index="0" speed="13.90" length="2.41" shape="304.97,476.96 305.89,477.10 307.05,478.02"/>
    </edge>
    <edge id=":2/2_4" function="internal">
        <lane id=":2/2_4_0" index="0" speed="13.90" length="8.81" shape="310.47,470.12 308.71,472.75 307.55,474.95 307.00,476.70 307.05,478.02"/>
    </edge>
    <edge id=":2/2_5" function="internal">
        <lane id=":2/2_5_0" index="0" speed="13.90" length="15.83" shape="310.47,470.12 307.60,473.16 304.31,474.93 300.62,475.43 296.51,474.66"/>
    </edge>
    <edge id=":2/2_6" function="internal">
        <lane id=":2/2_6_0" index="0" speed="13.90" length="14.60" shape="310.47,470.12 307.40,473.40 304.71,474.23 302.42,472.61 300.50,468.55"/>
    </edge>
    <edge id=":2/2_7" function="internal">
        <lane id=":2/2_7_0" index="0" speed="13.90" length="4.82" shape="310.47,470.12 309.08,470.64 308.17,470.49 307.74,469.67 307.80,468.18"/>
    </edge>
    <edge id=":2/2_8" function="internal">
        <lane id=":2/2_8_0" index="0" speed="13.90" length="6.10" shape="303.64,467.53 304.44,469.22 305.40,469.90 306.52,469.55 307.80,468.18"/>
    </edge>
    <edge id=":2/2_9" function="internal">
        <lane id=":2/2_9_0" index="0" speed="13.90" length="11.03" shape="303.64,467.53 307.05,478.02"/>
    </edge>
    <edge id=":2/2_10" function="internal">
        <lane id=":2/2_10_0" index="0" speed="13.90" length="6.39" shape="303.64,467.53 304.49,471.94 303.87,473.73"/>
    </edge>
    <edge id=":2/2_11" function="internal">
        <lane id=":2/2_11_0" index="0" speed="13.90" length="2.41" shape="303.64,467.53 303.24,468.96 302.58,469.60"/>
    </edge>
    <edge id=":2/2_18" function="internal">
        <lane id=":2/2_18_0" index="0" speed="13.90" length="8.22" shape="303.87,473.73 303.58,474.60 300.92,475.51 296.51,474.66"/>
    </edge>
    <edge id=":2/2_19" function="internal">
        <lane id=":2/2_19_0" index="0" speed="13.90" length="2.41" shape="302.58,469.60 301.67,469.47 300.50,468.55"/>
    </edge>
    <edge id=":2/2_12" function="internal">
        <lane id=":2/2_12_0" index="0" speed="13.90" length="6.10" shape="297.53,471.52 299.37,471.88 300.48,471.50 300.86,470.39 300.50,468.55"/>
    </edge>
    <edge id=":2/2_13" function="internal">
        <lane id=":2/2_13_0" index="0" speed="13.90" length="11.65" shape="297.53,471.52 300.55,472.09 303.27,471.72 305.69,470.42 307.80,468.18"/>
    </edge>
    <edge id=":2/2_14" function="internal">
        <lane id=":2/2_14_0" index="0" speed="13.90" length="11.88" shape="297.53,471.52 301.23,472.94 304.05,474.50 305.99,476.19 307.05,478.02"/>
    </edge>
    <edge id=":2/2_15" function="internal">
        <lane id=":2/2_15_0" index="0" speed="13.90" length="4.82" shape="297.53,471.52 298.45,472.69 298.58,473.60 297.94,474.26 296.51,474.66"/>
    </edge>
    <edge id=":2/3_0" function="internal">
        <lane id=":2/3_0_0" index="0" speed="13.90" length="15.83" shape="341.38,565.23 338.50,568.27 335.22,570.04 331.52,570.54 327.41,569.77"/>
    </edge>
    <edge id=":2/3_1" function="internal">
        <lane id=":2/3_1_0" index="0" speed="13.90" length="8.88" shape="341.38,565.23 338.30,568.50 335.62,569.33 334.32,568.42"/>
    </edge>
    <edge id=":2/3_2" function="internal">
        <lane id=":2/3_2_0" index="0" speed="13.90" length="2.67" shape="341.38,565.23 339.98,565.75 339.07,565.59 338.95,565.36"/>
    </edge>
    <edge id=":2/3_9" function="internal">
        <lane id=":2/3_9_0" index="0" speed="13.90" length="5.72" shape="334.32,568.42 333.32,567.71 331.41,563.65"/>
    </edge>
    <edge id=":2/3_10" function="internal">
        <lane id=":2/3_10_0" index="0" speed="13.90" length="2.15" shape="338.95,565.36 338.65,564.78 338.71,563.29"/>
    </edge>
    <edge id=":2/3_3" function="internal">
        <lane id=":2/3_3_0" index="0" speed="13.90" length="6.10" shape="334.54,562.63 335.34,564.33 336.30,565.00 337.42,564.66 338.71,563.29"/>
    </edge>
    <edge id=":2/3_4" function="internal">
        <lane id=":2/3_4_0" index="0" speed="13.90" length="14.60" shape="334.54,562.63 335.39,567.04 334.48,569.70 331.82,570.61 327.41,569.77"/>
    </edge>
    <edge id=":2/3_5" function="internal">
        <lane id=":2/3_5_0" index="0" speed="13.90" length="4.82" shape="334.54,562.63 334.14,564.06 333.49,564.71 332.57,564.57 331.41,563.65"/>
    </edge>
    <edge id=":2/3_6" function="internal">
        <lane id=":2/3_6_0" index="0" speed="13.90" length="6.10" shape="328.43,566.63 330.27,566.98 331.38,566.60 331.76,565.49 331.41,563.65"/>
    </edge>
    <edge id=":2/3_7" function="internal">
        <lane id=":2/3_7_0" index="0" speed="13.90" length="11.65" shape="328.43,566.63 331.45,567.20 334.17,566.83 336.59,565.53 338.71,563.29"/>
    </edge>
    <edge id=":2/3_8" function="internal">
        <lane id=":2/3_8_0" index="0" speed="13.90" length="2.22" shape="328.43,566.63 329.35,567.80 329.46,568.52"/>
    </edge>
    <edge id=":2/3_11" function="internal">
        <lane id=":2/3_11_0" index="0" speed="13.90" length="2.60" shape="329.46,568.52 329.49,568.71 328.84,569.37 327.41,569.77"/>
    </edge>
    <edge id=":3/1_0" function="internal">
        <lane id=":3/1_0_0" index="0" speed="13.90" length="8.81" shape="168.79,348.10 165.74,347.23 163.30,346.81 161.46,346.83 160.22,347.29"/>
    </edge>
    <edge id=":3/1_1" function="internal">
        <lane id=":3/1_1_0" index="0" speed="13.90" length="15.83" shape="168.79,348.10 165.01,346.30 162.31,343.73 160.69,340.36 160.15,336.22"/>
    </edge>
    <edge id=":3/1_2" function="internal">
        <lane id=":3/1_2_0" index="0" speed="13.90" length="14.60" shape="168.79,348.10 164.72,346.19 163.11,343.89 163.93,341.20 167.21,338.13"/>
    </edge>
    <edge id=":3/1_3" function="internal">
        <lane id=":3/1_3_0" index="0" speed="13.90" length="4.82" shape="168.79,348.10 167.86,346.93 167.73,346.02 168.37,345.36 169.81,344.96"/>
    </edge>
    <edge id=":3/1_4" function="internal">
        <lane id=":3/1_4_0" index="0" speed="13.90" length="6.10" shape="169.15,340.80 167.78,342.08 167.43,343.20 168.11,344.16 169.81,344.96"/>
    </edge>
    <edge id=":3/1_5" function="internal">
        <lane id=":3/1_5_0" index="0" speed="13.90" length="11.03" shape="169.15,340.80 160.22,347.29"/>
    </edge>
    <edge id=":3/1_6" function="internal">
        <lane id=":3/1_6_0" index="0" speed="13.90" length="6.39" shape="169.15,340.80 165.21,342.96 163.32,342.93"/>
    </edge>
    <edge id=":3/1_7" function="internal">
        <lane id=":3/1_7_0" index="0" speed="13.90" length="2.41" shape="169.15,340.80 167.66,340.86 166.84,340.43"/>
    </edge>
    <edge id=":3/1_16" function="internal">
        <lane id=":3/1_16_0" index="0" speed="13.90" length="8.22" shape="163.32,342.93 162.40,342.92 160.72,340.67 160.15,336.22"/>
    </edge>
    <edge id=":3/1_17" function="internal">
        <lane id=":3/1_17_0" index="0" speed="13.90" length="2.41" shape="166.84,340.43 166.69,339.52 167.21,338.13"/>
    </edge>
    <edge id=":3/1_8" function="internal">
        <lane id=":3/1_8_0" index="0" speed="13.90" length="6.10" shape="163.45,336.22 163.69,338.08 164.39,339.02 165.57,339.03 167.21,338.13"/>
    </edge>
    <edge id=":3/1_9" function="internal">
        <lane id=":3/1_9_0" index="0" speed="13.90" length="11.65" shape="163.45,336.22 163.85,339.27 165.04,341.74 167.03,343.64 169.81,344.96"/>
    </edge>
    <edge id=":3/1_10" function="internal">
        <lane id=":3/1_10_0" index="0" speed="13.90" length="11.88" shape="163.45,336.22 163.25,340.18 162.65,343.34 161.63,345.71 160.22,347.29"/>
    </edge>
    <edge id=":3/1_11" function="internal">
        <lane id=":3/1_11_0" index="0" speed="13.90" length="4.82" shape="163.45,336.22 162.63,337.45 161.80,337.87 160.98,337.45 160.15,336.22"/>
    </edge>
    <edge id=":3/1_12" function="internal">
        <lane id=":3/1_12_0" index="0" speed="13.90" length="8.81" shape="158.28,344.62 159.10,343.58 159.69,341.84 160.04,339.38 160.15,336.22"/>
    </edge>
    <edge id=":3/1_13" function="internal">
        <lane id=":3/1_13_0" index="0" speed="13.90" length="11.03" shape="158.28,344.62 167.21,338.13"/>
    </edge>
    <edge id=":3/1_14" function="internal">
        <lane id=":3/1_14_0" index="0" speed="13.90" length="4.57" shape="158.28,344.62 160.21,343.76 162.66,343.54"/>
    </edge>
    <edge id=":3/1_15" function="internal">
        <lane id=":3/1_15_0" index="0" speed="13.90" length="2.41" shape="158.28,344.62 159.77,344.56 160.59,344.98"/>
    </edge>
    <edge id=":3/1_18" function="internal">
        <lane id=":3/1_18_0" index="0" speed="13.90" length="7.31" shape="162.66,343.54 162.78,343.53 165.98,343.93 169.81,344.96"/>
    </edge>
    <edge id=":3/1_19" function="internal">
        <lane id=":3/1_19_0" index="0" speed="13.90" length="2.41" shape="160.59,344.98 160.74,345.89 160.22,347.29"/>
    </edge>
    <edge id=":3/2_0" function="internal">
        <lane id=":3/2_0_0" index="0" speed="13.90" length="8.81" shape="87.88,406.88 84.84,406.01 82.40,405.59 80.56,405.60 79.32,406.06"/>
    </edge>
    <edge id=":3/2_1" function="internal">
        <lane id=":3/2_1_0" index="0" speed="13.90" length="15.83" shape="87.88,406.88 84.11,405.08 81.41,402.50 79.79,399.14 79.25,395.00"/>
    </edge>
    <edge id=":3/2_2" function="internal">
        <lane id=":3/2_2_0" index="0" speed="13.90" length="14.60" shape="87.88,406.88 83.82,404.97 82.20,402.67 83.03,399.98 86.31,396.91"/>
    </edge>
    <edge id=":3/2_3" function="internal">