<configuration>
	<input>
		<net-file value='spider.net.xml'/>
		<route-files value='spider.rou.xml'/>
		<gui-settings-file value='spider.settings.xml'/>
	</input>
	<time>
		<begin value='0'/>
		<end value='1800'/>
	</time>
</configuration>
