<?xml version="1.0"?>
<!-- generated on 2017-02-01 10:33:33.691823 by $Id: randomTrips.py 21557 2016-09-28 10:43:52Z luecken $
  options: -n ./map/spider/spider.net.xml -e 180 -r ./map/spider/spider.rou.xml <doubleminus>trip-attributes=departLane="best" departSpeed="random" departPos="random" <doubleminus>intermediate 10 -p 7 -b 0.1 -o ./map/spider/spider.trips.xml
-->
<trips>
    <trip id="0" depart="0.10" from="4/3to4/2" to="2/3to2/2" via="5/1to1/1 1/3to2/3 4/1to5/1 1to1/1 5/1to5/2 4/2to4/3 1/2to5/2 5/2to4/2 4/1to5/1 1/1to1/2" departLane="best"/>
    <trip id="1" depart="7.10" from="5/3to1/3" to="2/3to1/3" via="5/3to4/3 2/3to1/3 1/1to5/1 1/2to2/2 5/1to4/1 2/1to2/2 1to5/1 4/2to3/2 4/2to4/3 4/1to5/1" departLane="best"/>
    <trip id="2" depart="14.10" from="1to4/1" to="4/2to4/1" via="1to5/1 5/1to4/1 2/2to2/1 2/2to2/3 3/2to3/1 2/2to2/1 2/2to2/1 5/1to1/1 3/1to4/1 3/3to3/2" departLane="best"/>
    <trip id="3" depart="21.10" from="4/3to4/2" to="3/2to4/2" via="5/2to5/3 5/3to1/3 2/1to3/1 5/1to4/1 1/1to1/2 3/1to4/1 2/3to3/3 1to2/1 4/3to3/3 1/2to5/2" departLane="best"/>
    <trip id="4" depart="28.10" from="4/2to4/1" to="5/1to5/2" via="5/3to5/2 5/3to4/3 2/3to1/3 5/3to1/3 5/2to5/1 1to2/1 4/1to4/2 1/3to2/3 4/2to4/3 1/3to5/3" departLane="best"/>
    <trip id="5" depart="35.10" from="1/1to1" to="4/3to3/3" via="5/1to4/1 1/2to1/3 4/2to3/2 1/2to2/2 1/1to5/1 5/3to5/2 3/3to3/2 3/2to2/2 4/2to4/3 2/3to1/3" departLane="best"/>
    <trip id="6" depart="42.10" from="4/2to4/3" to="5/2to5/3" via="1to1/1 1to5/1 5/2to4/2 2/2to1/2 1/1to1 4/1to1 3/3to2/3 2/2to2/3 4/3to5/3 1/3to5/3" departLane="best"/>
    <trip id="7" depart="49.10" from="3/3to3/2" to="1/2to1/1" via="2/2to3/2 1/1to2/1 1/2to2/2 2/3to3/3 1/3to2/3 5/2to5/3 4/1to3/1 2/2to2/1 3/2to3/1 3/2to2/2" departLane="best"/>
    <trip id="8" depart="56.10" from="1to4/1" to="1/2to1/3" via="2/1to1 3/2to2/2 3/1to1 3/3to2/3 1/2to1/1 4/1to3/1 4/2to3/2 1/3to1/2 5/1to5/2 1/2to2/2" departLane="best"/>
    <trip id="9" depart="63.10" from="5/1to1/1" to="3/1to1" via="1/3to2/3 1to3/1 1/2to5/2 5/2to5/1 5/3to1/3 4/2to4/1 2/2to3/2 1/1to5/1 2/1to3/1 2/2to3/2" departLane="best"/>
    <trip id="10" depart="70.10" from="3/1to2/1" to="4/1to4/2" via="4/2to5/2 5/3to4/3 1/2to1/3 2/1to1/1 5/1to1/1 3/2to3/1 3/1to1 5/2to1/2 1to2/1 4/2to3/2" departLane="best"/>
    <trip id="11" depart="77.10" from="1to2/1" to="1to2/1" via="4/3to5/3 3/2to2/2 4/3to4/2 1/2to2/2 1/1to1/2 4/2to4/3 4/2to3/2 4/2to5/2 2/2to3/2 5/1to4/1" departLane="best"/>
    <trip id="12" depart="84.10" from="2/2to2/3" to="2/1to2/2" via="5/3to4/3 4/2to4/1 3/1to1 4/3to3/3 2/1to3/1 2/2to2/1 4/2to4/1 4/3to4/2 4/2to3/2 1to4/1" departLane="best"/>
    <trip id="13" depart="91.10" from="1/2to1/1" to="3/1to4/1" via="3/2to3/3 1/3to2/3 3/2to3/3 1/2to1/1 3/1to4/1 3/3to2/3 1to3/1 3/3to4/3 4/1to5/1 5/3to4/3" departLane="best"/>
    <trip id="14" depart="98.10" from="3/1to1" to="2/2to2/3" via="4/1to5/1 1/1to5/1 4/3to5/3 4/2to5/2 4/1to4/2 2/3to2/2 1/1to2/1 2/2to3/2 4/2to5/2 2/2to3/2" departLane="best"/>
    <trip id="15" depart="105.10" from="1to1/1" to="5/1to1/1" via="4/1to1 2/2to3/2 4/3to4/2 5/2to1/2 1to3/1 5/1to4/1 2/1to3/1 5/3to1/3 3/2to4/2 2/3to1/3" departLane="best"/>
    <trip id="16" depart="112.10" from="2/1to3/1" to="5/2to5/3" via="1to3/1 5/2to1/2 1to4/1 1/3to1/2 3/3to4/3 1/2to1/1 1to4/1 2/2to3/2 1/1to1/2 4/1to1" departLane="best"/>
    <trip id="17" depart="119.10" from="1to1/1" to="3/1to4/1" via="5/1to4/1 4/1to5/1 5/2to1/2 1/1to1/2 5/2to5/1 5/3to5/2 2/3to2/2 1/1to5/1 3/1to4/1 3/2to4/2" departLane="best"/>
    <trip id="18" depart="126.10" from="3/1to1" to="2/2to1/2" via="4/1to4/2 1/3to2/3 2/1to3/1 1/1to1/2 4/2to3/2 5/3to5/2 2/2to2/1 1/1to5/1 1to3/1 4/2to4/1" departLane="best"/>
    <trip id="19" depart="133.10" from="2/2to2/3" to="3/1to1" via="4/3to4/2 2/1to3/1 2/1to2/2 2/3to3/3 3/2to3/1 1/2to1/3 2/3to1/3 1to4/1 3/2to3/1 2/3to3/3" departLane="best"/>
    <trip id="20" depart="140.10" from="3/3to4/3" to="5/2to4/2" via="1to3/1 4/2to4/1 5/2to1/2 2/1to1 3/3to2/3 5/1to1 1to2/1 1/1to1 1to3/1 1to1/1" departLane="best"/>
    <trip id="21" depart="147.10" from="4/1to5/1" to="1/1to1/2" via="2/3to3/3 3/3to2/3 1/2to2/2 1to5/1 3/1to3/2 4/3to5/3 3/1to4/1 3/2to3/1 5/1to4/1 2/2to2/1" departLane="best"/>
    <trip id="22" depart="154.10" from="2/2to1/2" to="3/1to3/2" via="2/2to2/1 3/1to3/2 4/2to5/2 4/3to3/3 1/3to1/2 3/1to2/1 1to4/1 1to3/1 1/3to2/3 1/1to2/1" departLane="best"/>
    <trip id="23" depart="161.10" from="1/1to1" to="3/1to1" via="5/2to1/2 1to2/1 3/2to2/2 5/3to1/3 1to1/1 4/1to1 1/3to1/2 2/1to2/2 4/3to4/2 2/3to2/2" departLane="best"/>
    <trip id="24" depart="168.10" from="3/2to3/1" to="3/2to3/3" via="1to3/1 5/2to4/2 5/2to1/2 2/3to3/3 2/3to3/3 3/1to1 3/2to2/2 3/2to2/2 1to5/1 4/1to4/2" departLane="best"/>
    <trip id="25" depart="175.10" from="5/3to4/3" to="3/3to3/2" via="3/1to1 5/1to1/1 2/1to1 4/2to5/2 5/2to1/2 3/2to2/2 1to5/1 4/1to4/2 3/1to2/1 2/2to2/3" departLane="best"/>
</trips>
