<?xml version="1.0" encoding="UTF-8"?>

<!-- generated on Thu Feb  2 14:35:49 2017 by SUMO duarouter Version 0.28.0
<?xml version="1.0" encoding="UTF-8"?>

<configuration xmlns:xsi="http://www.w3.org/2001/XMLSchema-instance" xsi:noNamespaceSchemaLocation="http://sumo.dlr.de/xsd/duarouterConfiguration.xsd">

    <input>
        <net-file value="./map/Random/Random.net.xml"/>
        <trip-files value="./map/Random/Random.trips.xml"/>
    </input>

    <output>
        <output-file value="./map/Random/Random.rou.xml"/>
    </output>

    <processing>
        <ignore-errors value="true"/>
    </processing>

    <time>
        <begin value="0.1"/>
        <end value="180.0"/>
    </time>

    <report>
        <no-warnings value="true"/>
        <no-step-log value="true"/>
    </report>

</configuration>
-->

<routes xmlns:xsi="http://www.w3.org/2001/XMLSchema-instance" xsi:noNamespaceSchemaLocation="http://sumo.dlr.de/xsd/routes_file.xsd">
    <vehicle id="0" depart="0.10" departLane="best">
        <route edges="344 -344 -125 121 -64 -13 -3 7 333 -138 -25 17 -13 -3 7 356 -348 -138 210 349 -344 -125 121 326 -313 -117 119 -119 -15 13 -17 19 125 344 -349 -210 -25 17 -13 15 119 -119 -15 13 -17 25 128 381"/>
    </vehicle>
    <vehicle id="1" depart="7.10" departLane="best">
        <route edges="-210 -25 17 -13 13 -17 25 138 -333 333 -138 210 -381 -128 -25 17 -13 13 116 -116 -17 25 138 348 -348 -138 138 -138 -25 17 -13 13 -17 25 126 -125 121 -64"/>
    </vehicle>
    <vehicle id="2" depart="14.10" departLane="best">
        <route edges="344 -344 -125 121 -64 64 -64 -17 25 126 -126 138 348 -356 -7 9 19 123 -123 125 -125 121 -64 64 -64 -17 25 -25 -9 9 25 210 -381 -128 126 -125 123"/>
    </vehicle>
    <vehicle id="3" depart="21.10" departLane="best">
        <route edges="-365 -344 -125 121 326 -313 -38 -13 15 117 -117 -15 -3 7 356 -356 333 348 -356 -7 3 -3 7 -7 9 -9 3 15 117 313 -326 -121 121 326 -313 -117 119 332"/>
    </vehicle>
    <vehicle id="4" depart="28.10" departLane="best">
        <route edges="121 326 -116 64 -121 125 -126 -25 -9 7 333 -138 126 344 -344 -125 123 336 -336 -123 -19 -9 7 -7 3 15 117 313 -326 -121 125 344 -344 344 365"/>
    </vehicle>
    <vehicle id="5" depart="35.10" departLane="best">
        <route edges="-210 138 348 -356 333 348 -356 -7 3 13 116 -326 -64 -17 25 210 -210 138 -138 -25 17 -13 -3 9 19 125 -126 -25 17 -13 15 -15 13 -17 25 128 381 -210 -25 25 -25 19 -19"/>
    </vehicle>
    <vehicle id="6" depart="42.10" departLane="best">
        <route edges="-128 -25 17 38 -117 117 313 -326 -121 123 -123 125 344 -349 349 -349 -210 138 348 -356 -7 3 13 116 -116 64 -121 123 336 -336 -123 123 -123 -19 25 128 381 -210 -25 17 38 -38 -17 25"/>
    </vehicle>
    <vehicle id="7" depart="49.10" departLane="best">
        <route edges="-13 -3 9 19 123 -123 121 -121 125 -125 121 -64 -13 -3 9 25 210 349 -344 -125 121 -64 -13 13 -13 15 -15 -3 7 356 -356 -7 9 25"/>
    </vehicle>
    <vehicle id="8" depart="56.10" departLane="best">
        <route edges="-116 -17 25 126 -126 138 -138 -25 17 64 -64 -13 15 117 -38 116 -116 -13 -3 9 19 125 344 -344 344 -344 -125 121 -64 64 326 -313 -117"/>
    </vehicle>
    <vehicle id="9" depart="63.10" departLane="best">
        <route edges="-338 -123 125 344 -349 -381 -128 -25 17 38 313 -116 -17 25 210 349 -344 -125 -19 25 -25 17 116 -116 -13 -3 7 -7 9 25 -25 17 64"/>
    </vehicle>
    <vehicle id="10" depart="70.10" departLane="best">
        <route edges="313 -116 -13 -3 3 -3 7 333 -333 -7 9 17 116 -313 -117 -15 -3 7 356 -356 -7 3 13 64 -64 -13 15 119 -119 -15 13 -17 25 128 -128 -25 17 64 -121 125 344 -349 349 379"/>
    </vehicle>
    <vehicle id="11" depart="77.10" departLane="best">
        <route edges="-379 -344 -125 121 -64 -13 13 64 -121 121 -64 -17 19 -19 -9 7 -7 3 13 -17 25 210 -381 -128 -25 17 64 -121 121 326 -313 -117 119 -119 117 313 -326 -64 64"/>
    </vehicle>
    <vehicle id="12" depart="84.10" departLane="best">
        <route edges="-356 -7 3 13 116 -116 -13 15 117 313 -326 -121 125 344 -349 -210 138 348 -356 -7 3 13 64 -64 -13 -3 7 -7 3 15 -15 13 38 313 -326 -121 121 -64 64 -64 38"/>
    </vehicle>
    <vehicle id="13" depart="91.10" departLane="best">
        <route edges="-13 13 64 -121 125 -125 123 -123 -19 17 -17 25 138 -333 333 -138 128 381 -210 -25 17 64 326 -116 116 -326 -64 -13 -3 7 356 -348 -333 -7 3 15 117 -38 -17 25 138 -138"/>
    </vehicle>
    <vehicle id="14" depart="98.10" departLane="best">
        <route edges="15 117 313 -326 -121 125 344 -344 -125 123 336 -336 -123 121 -64 -13 15 -15 13 -17 25 128 -128 138 -138 138 348 -356 -7 9 19 123 336 -336 -123 -19 25 138 -138 138 -333 -7 9 19 123 338"/>
    </vehicle>
    <vehicle id="15" depart="105.10" departLane="best">
        <route edges="-326 -121 125 344 -344 -125 121 -64 -13 -3 9 -9 7 333 -138 210 349 -344 344 -349 349 -344 -125 -19 -9 9 17 64 -64 -17 25 138 348 -356 356"/>
    </vehicle>
    <vehicle id="16" depart="112.10" departLane="best">
        <route edges="7 -7 9 -9 9 19 -19 17 38 313 -326 -121 125 344 -349 -381 -128 -25 17 -13 15 117 -38 38 -38 -17 25 210 349 -344 -125 121 326 -313 -117 -15 15 117 -117"/>
    </vehicle>
    <vehicle id="17" depart="119.10" departLane="best">
        <route edges="-13 13 64 -121 125 344 -344 -126 128 -128 126 344 -344 -125 121 -64 -13 -3 3 13 64 326 -326 -121 121 -64 116 -116 -13 -3 7 356 -348 -333 -7 9 19 125 -125 -19 -9 7 333"/>
    </vehicle>
    <vehicle id="18" depart="126.10" departLane="best">
        <route edges="126 -126 138 348 -348 -138 128 381 -210 -25 17 -13 15 119 -119 -15 -3 7 356 -356 -7 3 15 117 -38 -17 25 128 -128 -25 19 123 -123 121 -121 121 -64 116 -116 -17 25 210 -381 381 -210"/>
    </vehicle>
    <vehicle id="19" depart="133.10" departLane="best">
        <route edges="313 -116 -13 -3 3 13 64 -121 123 336 -336 -123 -19 25 138 -333 333 -138 128 -128 -25 19 121 -64 -17 25 138 348 -356 -7 3 13 -13 -3 7 -7 9 19 125 -126 -25 19 -19 25 138"/>
    </vehicle>
    <vehicle id="20" depart="140.10" departLane="best">
        <route edges="349 -349 -210 210 -210 -25 -9 7 -7 3 15 119 -119 117 -117 -15 -3 7 333 -138 -25 17 64 -121 121 326 -313 -117 -15 -3 9 17 38 -38 64 -121 121 -64 -17 25 128"/>
    </vehicle>
    <vehicle id="21" depart="147.10" departLane="best">
        <route edges="-19 19 121 -64 -13 13 64 -121 -19 -9 7 -7 9 19 123 336 -336 -123 -19 25 126 -126 -25 17 -17 -9 3 13 64 326 -116 -13 13"/>
    </vehicle>
    <vehicle id="22" depart="154.10" departLane="best">
        <route edges="121 -64 -13 -3 3 13 116 -326 326 -313 -117 119 -119 117 -38 64 -121 125 344 -349 349 -344 -125 123 -123 -19 25 -25 -9 7 333 -138 128 381 349 -349"/>
    </vehicle>
    <vehicle id="23" depart="161.10" departLane="best">
        <route edges="349 -344 -125 121 326 -313 -38 64 326 -116 -17 25 -25 17 -13 -3 3 13 64 -64 38 -38 38 313 -116 -17 25 128 -128 210 -381 -128 126 -126 -25"/>
    </vehicle>
    <vehicle id="24" depart="168.10" departLane="best">
        <route edges="-17 17 -13 13 64 326 -313 -117 -15 -3 7 333 -333 -7 3 15 117 313 -326 -121 125 344 -344 -125 121 326 -313 313 -313 -117 119 -119 -15 13 -17 25 210 -381 381 -210 128 383"/>
    </vehicle>
    <vehicle id="25" depart="175.10" departLane="best">
        <route edges="-19 25 -25 25 128 381 -210 -25 25 126 -126 128 -128 138 -138 -25 17 116 -313 -38 -17 25 128 381 -210 -25 17 -13 15 -15 13 -13 -3 7 333"/>
    </vehicle>
</routes>
